! b97-3c opt
%maxcore 5000
* xyz 0 1
O  1.9854  3.7412  1.1606
C  1.8339  2.5533  0.7859
C  0.4594  2.1382  0.4126
C  -0.4208  3.3089  0.0681
C  -1.8415  2.9981  0.4848
C  -2.5010  1.9976  -0.4424
C  -2.7958  0.6908  0.2446
C  -2.4119  -0.4555  -0.6816
C  -2.3637  -1.7253  0.1115
C  -1.5555  -2.8060  -0.5531
C  -0.3111  -3.0937  0.2397
C  0.8149  -2.1155  -0.0865
C  1.8756  -2.3171  0.9743
C  2.7018  -1.0553  1.1853
C  3.3508  -0.6402  -0.0918
C  3.0858  0.8030  -0.4243
O  2.8368  1.6048  0.6928
H  0.5041  1.4889  -0.4844
H  -0.0321  1.5994  1.2753
H  -0.4115  3.5080  -1.0225
H  -0.1271  4.2453  0.5871
H  -2.3882  3.9685  0.5031
H  -1.8454  2.5749  1.5238
H  -1.8353  1.8249  -1.3332
H  -3.4473  2.4649  -0.8066
H  -3.8950  0.6160  0.4178
H  -2.2291  0.6377  1.1822
H  -3.1654  -0.5407  -1.4668
H  -1.4446  -0.1817  -1.1439
H  -3.4307  -2.0477  0.2808
H  -1.9589  -1.5695  1.1446
H  -2.1721  -3.7352  -0.5343
H  -1.3570  -2.5995  -1.6242
H  0.0621  -4.0955  -0.0197
H  -0.5323  -2.9622  1.3161
H  1.2455  -2.3483  -1.0975
H  0.4831  -1.0780  -0.0259
H  1.3724  -2.5288  1.9451
H  2.5562  -3.1445  0.6875
H  3.4736  -1.3319  1.9490
H  2.0556  -0.2821  1.6439
H  2.9909  -1.3066  -0.9237
H  4.4543  -0.8563  -0.0254
H  4.0280  1.2031  -0.9004
H  2.3029  0.8499  -1.2035
*