! b97-3c opt
%maxcore 5000
* xyz 0 1
C  -1.6971  -0.9658  -1.0326
C  -1.4366  -0.0036  0.1104
C  -1.3647  1.4224  -0.3644
C  -0.2455  1.5127  -1.3526
C  1.0623  1.1543  -0.7661
C  1.1219  -0.1140  0.0309
C  2.2538  0.0703  1.0528
C  1.4126  -1.3281  -0.8146
C  -0.1422  -0.3332  0.8004
C  -0.3675  -0.7489  2.0256
C  -1.8113  -0.7128  2.2227
O  -2.4124  -1.0553  3.3075
O  -2.4121  -0.2573  1.0694
H  -2.7213  -0.7177  -1.4069
H  -1.0063  -0.8940  -1.8638
H  -1.7183  -1.9885  -0.5763
H  -1.1402  2.0565  0.5118
H  -2.3047  1.6825  -0.8689
H  -0.1821  2.6097  -1.6307
H  -0.4928  1.0135  -2.3094
H  1.3733  2.0063  -0.0920
H  1.8655  1.0992  -1.5300
H  2.1452  1.1095  1.4615
H  3.2169  0.0220  0.4872
H  2.1915  -0.6712  1.8549
H  0.6738  -2.1399  -0.6861
H  2.4149  -1.7370  -0.5426
H  1.3828  -1.0216  -1.8871
H  0.3407  -1.0699  2.7887
*