! b97-3c opt
%maxcore 5000
* xyz 0 1
C  2.7237  -0.4104  0.8438
C  1.3827  0.2142  0.4811
O  1.2327  1.5031  0.8860
C  1.3223  1.2652  -0.5110
C  0.0701  1.3783  -1.3178
C  -0.7906  0.1445  -1.1774
C  0.1308  -1.0850  -1.1287
C  0.2656  -0.7515  0.3695
C  -1.0963  -0.1656  0.2699
C  -2.1467  -1.2780  0.3193
C  -1.4723  0.9541  1.1435
H  2.6756  -1.5193  0.8420
H  2.9999  -0.0417  1.8509
H  3.5250  -0.1214  0.1568
H  2.2128  1.7658  -0.9434
H  0.3615  1.4401  -2.3926
H  -0.5208  2.2915  -1.1137
H  -1.6085  0.0487  -1.8866
H  -0.4380  -2.0204  -1.2348
H  1.0569  -0.9815  -1.6897
H  0.3100  -1.6512  1.0169
H  -2.8420  -1.1132  1.1870
H  -2.7164  -1.3227  -0.6320
H  -1.6971  -2.2657  0.4785
H  -1.1531  0.7635  2.1949
H  -2.6016  0.9922  1.2006
H  -1.1862  1.9659  0.7870
*