! b97-3c opt
%maxcore 5000
* xyz 0 1
C  -1.6391  -0.5793  1.1093
C  -0.8472  -0.3737  -0.1320
C  -1.7816  -0.5600  -1.3174
C  0.2896  -1.3431  -0.3125
C  1.2854  -1.2726  0.8310
C  1.9763  0.0891  0.6753
C  1.2891  0.6818  -0.5257
C  1.1277  -0.5969  -1.3671
C  -0.1532  0.9748  -0.1963
C  -0.2501  1.7509  1.0716
O  -0.7618  1.7059  -1.2108
H  -1.1880  -1.3083  1.8212
H  -2.6643  -1.0036  0.8911
H  -1.8683  0.3752  1.6617
H  -1.4221  -0.0877  -2.2295
H  -1.9313  -1.6542  -1.4274
H  -2.7584  -0.0491  -1.0665
H  0.0166  -2.3378  -0.6146
H  0.8483  -1.4147  1.8105
H  2.0445  -2.0762  0.6170
H  1.9176  0.6904  1.5776
H  3.0503  -0.0604  0.3879
H  1.8208  1.4635  -1.0352
H  0.5897  -0.4285  -2.2852
H  2.0869  -1.1271  -1.4497
H  0.4800  2.5819  1.0230
H  -0.0209  1.1784  1.9849
H  -1.2563  2.2553  1.1567
H  -0.2802  2.5262  -1.4489
*