! b97-3c opt
%maxcore 5000
* xyz 0 1
C  -1.5070  1.4297  -0.8330
C  -0.5072  0.6478  -0.0069
C  -0.7190  1.0106  1.4423
C  0.8875  1.0774  -0.4768
C  1.9299  0.6766  0.5197
C  1.7736  -0.8526  0.5234
C  0.8417  -1.1794  -0.6120
C  1.1308  0.0059  -1.5539
C  -0.5839  -0.8355  -0.2571
C  -1.1447  -1.6251  0.8638
O  -1.3377  -1.0065  -1.4333
H  -2.0681  2.1757  -0.1969
H  -1.0234  2.0361  -1.6212
H  -2.3000  0.7719  -1.2543
H  -1.8244  1.2073  1.5587
H  -0.4503  0.2268  2.1469
H  -0.2161  1.9370  1.7417
H  0.9335  2.0797  -0.8506
H  2.9233  0.8700  0.0571
H  1.8049  1.1076  1.5111
H  1.4005  -1.1620  1.5111
H  2.7473  -1.3557  0.3761
H  0.9870  -2.1353  -1.0798
H  2.1604  -0.0029  -1.9018
H  0.3618  0.0415  -2.3375
H  -0.3986  -2.1227  1.5121
H  -1.7447  -2.4715  0.4141
H  -1.8829  -1.0645  1.4821
H  -2.1742  -1.4880  -1.2453
*