! b97-3c opt
%maxcore 5000
* xyz 0 1
C  -2.6971  0.8517  -0.0441
C  -2.1050  -0.5228  0.0994
C  -0.6332  -0.5176  0.3844
C  -0.1294  0.6391  1.1467
C  1.3575  0.7440  1.0688
C  2.0186  -0.0044  -0.0043
C  3.5269  -0.2190  0.0119
C  1.3161  -0.5068  -1.0025
C  -0.1179  -0.3281  -1.0547
O  -0.8347  -1.3740  -1.6803
C  -2.1386  -1.2211  -1.2162
O  -3.2182  -1.5975  -1.7828
H  -3.7814  0.7188  -0.2436
H  -2.6266  1.3982  0.9176
H  -2.2924  1.4228  -0.8988
H  -2.7036  -1.0911  0.8106
H  -0.3242  -1.5031  0.7243
H  -0.4158  0.5582  2.2342
H  -0.5998  1.5564  0.7260
H  1.6502  1.8391  1.0108
H  1.7749  0.3885  2.0627
H  3.9902  0.3825  -0.8018
H  3.6858  -1.2769  -0.2268
H  3.9337  0.1012  0.9792
H  1.8530  -1.0564  -1.7789
H  -0.4889  0.6183  -1.4417
*