! b97-3c opt
%maxcore 5000
* xyz 0 1
O  0.7100  2.4009  0.2351
C  0.3754  1.2614  0.0506
C  1.2856  0.1050  -0.1126
C  0.4129  -1.0069  0.4740
C  -0.8574  -0.7521  -0.3076
C  -1.0158  0.7593  -0.0546
H  2.2369  0.2035  0.4022
H  1.3942  -0.1146  -1.2099
H  0.8347  -2.0010  0.3115
H  0.2108  -0.7614  1.5291
H  -0.7163  -0.8509  -1.3932
H  -1.7263  -1.3082  0.0845
H  -1.5619  1.2242  -0.9034
H  -1.5828  0.8409  0.8943
*