! b97-3c opt
%maxcore 5000
* xyz 0 1
C  -2.5170  0.5867  0.3645
C  -1.1890  0.0091  -0.0771
C  -1.2970  -0.8466  -1.2846
C  -0.4676  -0.5760  1.1125
C  -0.0453  0.8659  1.4327
C  -0.1429  1.0884  -0.0888
C  1.1604  0.6402  -0.6204
C  1.7752  1.4024  -1.5005
C  1.7111  -0.6461  -0.1362
O  2.9170  -0.4317  0.5299
C  0.7435  -1.3744  0.7632
H  -2.8365  0.1282  1.3442
H  -2.4783  1.6753  0.5401
H  -3.3121  0.3680  -0.3738
H  -2.3553  -0.9440  -1.6236
H  -0.9700  -1.9079  -1.0840
H  -0.7222  -0.4946  -2.1575
H  -1.0822  -1.0400  1.8778
H  -0.8084  1.4298  1.9855
H  0.9741  0.8727  1.8206
H  -0.4655  2.0985  -0.3349
H  2.7328  1.0988  -1.9078
H  1.3862  2.3446  -1.8645
H  1.9776  -1.2689  -1.0370
H  3.6047  -1.0996  0.2925
H  0.4454  -2.3523  0.3161
H  1.2612  -1.6265  1.7112
*