! b97-3c opt
%maxcore 5000
* xyz 0 1
C  -1.2278  0.5889  1.3489
C  -1.1470  -0.1928  0.0734
C  -2.5054  -0.6375  -0.3908
C  -0.1629  -1.3357  0.0658
C  0.0439  -1.0141  -1.4209
C  -0.3396  0.4232  -1.0349
C  0.8985  1.0339  -0.4772
C  1.1354  2.3360  -0.5004
C  1.8902  0.1139  0.1239
O  2.6946  0.7627  1.0727
C  1.1105  -1.0181  0.7775
H  -0.2643  0.9996  1.6839
H  -1.9322  1.4257  1.1859
H  -1.6984  -0.0769  2.1048
H  -2.9910  0.1534  -1.0089
H  -2.4498  -1.5745  -0.9832
H  -3.1915  -0.8552  0.4583
H  -0.5558  -2.3266  0.2701
H  -0.6806  -1.5151  -2.0654
H  1.0703  -1.1184  -1.7688
H  -0.8675  0.9833  -1.7981
H  2.0494  2.7313  -0.0826
H  0.4372  3.0332  -0.9290
H  2.6016  -0.2892  -0.6385
H  3.3570  0.0653  1.3635
H  0.9622  -0.7829  1.8539
H  1.7631  -1.9134  0.7161
*