! b97-3c opt
%maxcore 5000
* xyz 0 1
C  2.5454  -0.6753  -1.0194
C  1.4331  -0.9150  0.0075
C  1.8293  -0.2414  1.2602
C  1.3793  1.1618  1.4328
C  -0.0961  1.1866  1.2488
C  -0.4744  0.7176  -0.1299
C  -0.0197  1.8538  -1.0656
C  -1.9849  0.8048  -0.1854
C  -2.6048  -0.2996  0.5898
C  -2.2381  -1.5725  -0.1202
C  -0.8061  -1.7873  -0.3367
C  0.0710  -0.5950  -0.5267
O  0.2452  -0.4992  -1.9379
H  2.8001  0.3736  -1.1368
H  3.4517  -1.1834  -0.5785
H  2.3379  -1.2250  -1.9531
H  1.5211  -2.0269  0.2190
H  1.4419  -0.8228  2.1466
H  2.9335  -0.2709  1.3517
H  1.9494  1.8317  0.7765
H  1.5869  1.4525  2.4991
H  -0.5796  0.6457  2.0569
H  -0.4261  2.2600  1.3166
H  -0.4405  1.7290  -2.0657
H  -0.5153  2.7697  -0.6335
H  1.0536  2.0100  -1.0458
H  -2.2534  1.7943  0.2607
H  -2.3469  0.7548  -1.2248
H  -2.3594  -0.3081  1.6617
H  -3.7129  -0.1921  0.5241
H  -2.8180  -1.5952  -1.0684
H  -2.6725  -2.4092  0.5039
H  -0.4121  -2.3822  0.5438
H  -0.7033  -2.5297  -1.1873
H  0.8846  0.1850  -2.1841
*