! b97-3c opt
%maxcore 5000
* xyz 0 1
C  -1.8942  0.4217  -0.1713
C  -0.5926  -0.0087  0.4577
C  0.0964  -1.0913  -0.3229
C  1.5662  -0.7683  -0.0848
C  1.6478  0.7119  -0.0227
O  2.5973  1.4859  -0.2692
C  0.3274  1.1551  0.4097
O  -0.0439  2.3200  0.7101
H  -2.6920  0.2880  0.5591
H  -1.8909  1.4972  -0.4611
H  -2.1287  -0.1436  -1.0992
H  -0.7023  -0.3001  1.5172
H  -0.1335  -2.0808  0.1069
H  -0.1638  -1.0850  -1.3966
H  2.1986  -1.2087  -0.8553
H  1.8081  -1.1932  0.9222
*