! b97-3c opt
%maxcore 5000
* xyz 0 1
C  1.9296  -0.2286  0.1856
C  0.5481  -0.3517  -0.4394
C  -0.4676  -0.8436  0.5709
C  -1.7354  -0.1133  0.1742
C  -1.2146  1.2217  -0.2372
O  -1.8343  2.3075  -0.0896
C  0.1021  1.0130  -0.8190
O  0.7113  1.8635  -1.5103
H  2.1247  0.8274  0.4717
H  2.0325  -0.9081  1.0711
H  2.6693  -0.5333  -0.5916
H  0.5354  -1.0425  -1.2905
H  -0.6175  -1.9424  0.5084
H  -0.1768  -0.5637  1.5994
H  -2.4137  -0.0451  1.0494
H  -2.1932  -0.6607  -0.6530
*