! b97-3c opt
%maxcore 5000
* xyz 0 1
C  -0.3519  2.3097  1.4682
C  -0.1629  1.4887  0.2048
C  -1.2981  1.8344  -0.7023
C  -1.6179  0.8200  -1.7365
C  -1.2017  -0.5720  -1.4265
C  0.2647  -0.7166  -1.8398
C  1.0383  -0.4292  -0.5969
C  2.2390  -0.4217  -0.0623
C  3.4984  -0.8092  -0.7610
C  2.1908  0.0253  1.3767
C  0.7342  -0.3143  1.6976
C  0.0729  0.0400  0.4291
C  -1.1143  -0.8212  0.0745
C  -0.7912  -2.2911  0.2253
C  -2.3664  -0.5345  0.8097
H  -0.2047  3.3863  1.1463
H  -1.3896  2.2844  1.8483
H  0.4005  2.1326  2.2306
H  0.7681  1.9274  -0.2686
H  -2.2260  2.1147  -0.1211
H  -1.0580  2.7943  -1.2524
H  -2.7273  0.8179  -1.9468
H  -1.1618  1.0967  -2.7320
H  -1.8167  -1.3445  -1.9071
H  0.5384  0.0566  -2.5941
H  0.5038  -1.7348  -2.1549
H  3.3309  -1.8158  -1.2269
H  3.7379  -0.1282  -1.6060
H  4.3650  -0.8133  -0.0924
H  2.4261  1.0744  1.5032
H  2.8794  -0.6199  1.9490
H  0.3702  0.1342  2.6098
H  0.7174  -1.4161  1.8290
H  -1.6186  -2.8390  -0.3070
H  0.1328  -2.5625  -0.3007
H  -0.8394  -2.6308  1.2720
H  -3.1225  -0.0952  0.0930
H  -2.2656  0.0613  1.7233
H  -2.8748  -1.4892  1.1447
*