! b97-3c opt
%maxcore 5000
* xyz 0 1
C  -2.6235  0.3948  0.2368
C  -1.7131  -0.3610  -0.7474
C  -0.3910  -0.2125  -0.0308
C  0.5172  -1.2915  -0.4917
C  1.9658  -1.0701  -0.3121
C  2.2944  0.3036  0.2636
C  1.5444  1.2733  -0.6350
C  0.0927  1.1839  -0.2305
C  -0.7546  -0.3720  1.3887
C  -2.0148  -0.0310  1.5542
H  -3.6418  -0.0015  0.2152
H  -2.5502  1.4873  0.0902
H  -2.0600  -1.4089  -0.7418
H  -1.7280  0.1088  -1.7414
H  0.3143  -1.5340  -1.5560
H  0.2329  -2.2291  0.0699
H  2.5061  -1.1222  -1.2811
H  2.4390  -1.8718  0.3208
H  3.3861  0.4466  0.2126
H  1.9087  0.3108  1.2992
H  1.5957  0.9156  -1.6956
H  1.8760  2.3068  -0.5087
H  -0.4897  1.7087  -1.0156
H  -0.0146  1.8101  0.6887
H  -0.0802  -0.7169  2.1639
H  -2.6118  -0.0280  2.4838
*