! b97-3c opt
%maxcore 5000
* xyz 0 1
C  2.3860  0.1882  0.8943
C  1.2355  0.9820  0.2446
C  0.4143  -0.1705  -0.2686
C  -0.4940  0.3413  -1.3607
C  -1.5396  1.2156  -0.7028
C  -2.3284  0.4544  0.3283
C  -1.7885  -0.9737  0.4314
C  -0.3486  -0.8666  0.8299
C  1.4208  -1.1165  -0.7699
C  2.5477  -0.9252  -0.1171
H  2.0125  -0.1655  1.8509
H  3.3162  0.7474  0.8949
H  0.7083  1.5993  0.9690
H  1.6529  1.5235  -0.6219
H  0.1331  0.9978  -2.0107
H  -0.9368  -0.4348  -1.9789
H  -2.2166  1.6123  -1.5088
H  -1.0189  2.0893  -0.2800
H  -2.1736  0.9199  1.3266
H  -3.3881  0.4852  0.0686
H  -2.3253  -1.4805  1.2663
H  -1.8509  -1.5169  -0.5112
H  -0.2223  -0.2949  1.7819
H  0.0346  -1.8852  1.0437
H  1.2637  -1.8614  -1.5582
H  3.5059  -1.4645  -0.2413
*