! b97-3c opt
%maxcore 5000
* xyz 0 1
C  -2.9803  1.7303  0.1756
C  -2.2865  0.5293  -0.4304
C  -2.7467  -0.6836  0.3687
C  -1.4570  -1.3702  0.8645
C  -0.5823  -0.9808  -0.2095
C  0.8420  -1.1324  -0.2358
C  1.5831  -1.3268  1.0233
C  1.1853  -2.3457  -1.1254
C  1.3050  0.0725  -1.0634
C  0.0024  0.7802  -1.5005
C  -0.8208  0.5391  -0.2858
C  -0.2858  1.2864  0.8689
C  1.1695  1.5830  0.7873
C  1.9447  1.0231  -0.1163
C  3.3947  1.2778  -0.2485
H  -4.0366  1.6891  -0.1747
H  -3.0080  1.6614  1.2790
H  -2.5697  2.6871  -0.1899
H  -2.5755  0.4656  -1.4907
H  -3.3981  -0.4176  1.2088
H  -3.2096  -1.3827  -0.3576
H  -1.2430  -1.0448  1.8752
H  -1.5973  -2.4703  0.8910
H  -1.0218  -1.3561  -1.1860
H  1.6298  -2.4255  1.2367
H  1.1753  -0.8325  1.9178
H  2.6381  -1.0085  0.9107
H  2.0932  -2.1461  -1.7143
H  1.2967  -3.2598  -0.4976
H  0.3556  -2.5533  -1.8320
H  1.9306  -0.1898  -1.9091
H  -0.4309  0.1974  -2.3374
H  0.2123  1.8240  -1.7299
H  -0.7865  2.3023  0.8512
H  -0.5625  0.8746  1.8622
H  1.5992  2.2798  1.4930
H  3.8523  1.7023  0.6692
H  3.5085  2.0543  -1.0509
H  3.8809  0.3668  -0.6137
*