! b97-3c opt
%maxcore 5000
* xyz 0 1
O  0.0579  5.0606  1.0448
C  -0.2980  3.8962  0.7364
C  0.5586  3.2135  -0.2629
C  1.5607  2.2792  0.4272
C  2.3642  1.6457  -0.6839
C  3.3966  0.6730  -0.1745
C  2.7885  -0.5369  0.4758
C  2.2400  -1.5308  -0.5173
C  1.6250  -2.6662  0.2999
C  0.6007  -3.4003  -0.5176
C  -0.7629  -3.4075  0.1495
O  -1.0415  -2.1769  0.7066
C  -2.4248  -2.0229  0.7594
C  -2.9293  -1.0742  -0.3146
C  -3.2659  0.2839  0.2658
C  -2.1133  1.2596  -0.0157
C  -2.4084  2.6074  0.5391
O  -1.3709  3.2180  1.2219
H  1.1757  3.9164  -0.8574
H  -0.0216  2.6174  -0.9914
H  1.0308  1.5262  1.0486
H  2.2483  2.8731  1.0420
H  2.9129  2.4674  -1.1897
H  1.6893  1.2090  -1.4456
H  3.9936  1.2038  0.5912
H  4.0344  0.3793  -1.0197
H  2.0233  -0.2491  1.2052
H  3.5993  -1.0510  1.0346
H  3.0580  -1.9697  -1.1234
H  1.4329  -1.1317  -1.1448
H  2.4480  -3.3211  0.6401
H  1.0859  -2.1696  1.1375
H  0.4741  -3.0040  -1.5342
H  0.9162  -4.4597  -0.6054
H  -0.8090  -4.2102  0.9261
H  -1.5086  -3.6416  -0.6543
H  -2.6761  -1.5551  1.7318
H  -2.9584  -2.9706  0.6243
H  -2.0887  -0.9595  -1.0435
H  -3.7897  -1.4683  -0.8673
H  -4.2162  0.6729  -0.1051
H  -3.2906  0.1693  1.3778
H  -2.0266  1.3059  -1.1279
H  -1.2156  0.7854  0.3960
H  -3.2583  2.4831  1.2710
H  -2.8406  3.2305  -0.2812
*