! b97-3c opt
%maxcore 5000
* xyz 0 1
C  -1.7715  -0.6528  0.0026
C  -0.3074  -0.4324  -0.0327
C  0.3502  0.7804  0.0352
O  -0.1884  2.0418  0.1490
C  1.7046  0.5094  -0.0332
O  2.6859  1.2795  -0.0101
C  1.8087  -0.8647  -0.1401
O  0.6106  -1.3770  -0.1362
H  -2.2139  0.2325  0.5281
H  -2.2227  -0.7734  -0.9957
H  -1.9978  -1.5237  0.6512
H  -1.1722  2.2292  0.1980
H  2.7138  -1.4487  -0.2161
*