! b97-3c opt
%maxcore 5000
* xyz 0 1
C  3.3293  0.2240  -0.3540
C  1.9068  -0.1110  -0.0902
C  1.6344  -0.8546  0.9709
C  0.3345  -1.3306  1.4646
C  -0.8773  -0.9386  1.0347
C  -1.3190  0.0102  0.0197
C  -2.7261  -0.3642  -0.4053
C  -1.3849  1.4368  0.5231
C  -0.4815  0.0110  -1.2360
C  0.9124  0.4051  -1.0223
O  1.3481  1.3359  -1.7453
H  3.9430  -0.6589  -0.6034
H  3.7603  0.6742  0.5872
H  3.3847  1.0315  -1.1070
H  2.5163  -1.1373  1.5366
H  0.3532  -2.0613  2.2429
H  -1.6745  -1.4408  1.5635
H  -3.3456  -0.6106  0.5004
H  -3.2093  0.4631  -0.9800
H  -2.6276  -1.2679  -1.0463
H  -2.3218  1.6460  1.0810
H  -1.4279  2.0845  -0.3865
H  -0.4885  1.7132  1.1132
H  -0.9565  0.7290  -1.9324
H  -0.5825  -0.9887  -1.7289
*