! b97-3c opt
%maxcore 5000
* xyz 0 1
C  -1.2821  0.1000  0.1358
C  0.1269  0.5133  0.1688
C  1.2411  -0.3834  -0.2235
O  0.3857  1.6423  0.5350
H  -1.4484  -0.9651  0.3854
H  -1.8668  0.6856  0.8932
H  -1.6842  0.3185  -0.8696
H  0.9021  -0.9024  -1.1679
H  1.4503  -1.1574  0.5506
H  2.1755  0.1487  -0.4077
*