! b97-3c opt
%maxcore 5000
* xyz 0 1
C  -3.2521  1.1838  -0.3494
C  -2.5142  -0.0646  -0.0444
C  -3.1977  -1.3592  -0.3119
C  -1.3030  0.0035  0.4433
C  -0.6731  1.3096  0.6890
C  0.0807  1.8844  -0.4726
C  1.3706  2.5117  -0.1175
C  2.4788  1.9534  0.2956
C  2.8238  0.5674  0.5445
C  2.7572  -0.4146  -0.5618
C  2.5884  -1.8284  -0.0512
C  1.4313  -2.4510  0.0096
C  0.1149  -1.8919  -0.4025
C  -0.5660  -1.2428  0.7527
H  -4.3165  0.9826  -0.6150
H  -2.7261  1.6665  -1.2128
H  -3.2818  1.9174  0.4640
H  -2.6935  -1.9381  -1.1132
H  -4.2573  -1.1804  -0.5687
H  -3.1988  -1.9508  0.6306
H  0.0654  1.1847  1.5347
H  -1.3707  2.0851  1.0681
H  -0.5853  2.6663  -0.9619
H  0.1429  1.1022  -1.2451
H  1.3452  3.6247  -0.2324
H  3.3075  2.6798  0.4904
H  3.8587  0.4482  1.0033
H  2.1806  0.1485  1.3777
H  3.7815  -0.4068  -1.0523
H  2.0891  -0.2049  -1.3934
H  3.4747  -2.3670  0.2878
H  1.4230  -3.4726  0.4000
H  -0.4793  -2.7807  -0.7770
H  0.2008  -1.2626  -1.3144
H  0.1518  -1.0737  1.6110
H  -1.2511  -2.0297  1.1954
*