! b97-3c opt
%maxcore 5000
* xyz 0 1
C  3.2902  -1.4853  -0.0096
C  2.7031  -0.1278  -0.0289
C  3.5298  0.9906  -0.5440
C  1.4768  0.1223  0.3956
C  0.6745  -1.0229  0.9086
C  -0.2575  -1.6152  -0.1117
C  -1.4693  -2.0876  0.6085
C  -2.7063  -1.6886  0.3812
C  -3.1167  -0.6980  -0.6318
C  -3.1859  0.7161  -0.0721
C  -2.3855  1.6176  -0.9424
C  -1.1814  2.0759  -0.6806
C  -0.4316  1.7373  0.5744
C  1.0074  1.5056  0.3304
H  2.5406  -2.2647  -0.2720
H  4.1573  -1.4955  -0.6991
H  3.7069  -1.6735  1.0041
H  3.5207  1.8318  0.1819
H  4.5487  0.7025  -0.7995
H  3.0843  1.4242  -1.4875
H  0.0782  -0.6984  1.8135
H  1.3092  -1.8499  1.2919
H  0.1867  -2.5574  -0.5541
H  -0.4611  -0.9718  -0.9623
H  -1.3325  -2.8325  1.3989
H  -3.5263  -2.1179  0.9903
H  -2.4115  -0.7332  -1.4644
H  -4.1148  -0.9849  -1.0222
H  -2.9377  0.7698  0.9876
H  -4.2531  1.0848  -0.1440
H  -2.8355  1.9290  -1.8857
H  -0.6550  2.7371  -1.3725
H  -0.5318  2.6767  1.1975
H  -0.9225  0.9572  1.1699
H  1.3019  1.9482  -0.6454
H  1.5994  2.0780  1.0952
*