! b97-3c opt
%maxcore 5000
* xyz 0 1
C  1.7511  -1.6007  0.2953
C  0.6324  -0.6987  -0.0448
C  0.7086  0.6289  -0.0884
C  1.8489  1.5428  0.1699
C  -0.6463  1.1135  -0.4670
C  -1.5535  0.8000  0.6900
C  -1.6952  -0.7260  0.6933
C  -0.7618  -1.1247  -0.3976
C  -1.0600  -0.0163  -1.4276
H  2.7500  -1.1673  0.0271
H  1.8076  -1.8353  1.3759
H  1.6991  -2.5727  -0.2320
H  2.1077  2.0845  -0.7783
H  1.4970  2.3421  0.8654
H  2.7199  1.0309  0.6105
H  -0.7051  2.0887  -0.8843
H  -2.5109  1.3115  0.6597
H  -1.0139  1.0509  1.6271
H  -2.7495  -0.9304  0.3813
H  -1.4672  -1.1585  1.6751
H  -0.8476  -2.1085  -0.7907
H  -2.1231  0.0283  -1.6710
H  -0.3882  -0.0831  -2.2887
*