! b97-3c opt
%maxcore 5000
* xyz 0 1
C  2.3965  -0.1280  -0.7519
C  1.2891  -0.9409  -0.8727
C  0.0819  -0.5700  -0.3294
C  -0.0870  0.6159  0.3555
C  1.0197  1.4315  0.4779
C  2.2336  1.0633  -0.0658
C  -1.3180  0.9655  0.8941
C  -2.3990  0.1013  0.7382
C  -2.2552  -1.0878  0.0588
C  -1.0166  -1.4020  -0.4629
H  3.3625  -0.3977  -1.1720
H  1.4239  -1.8685  -1.4091
H  0.9146  2.3606  1.0067
H  3.1277  1.6820  0.0115
H  -1.4314  1.9142  1.4358
H  -3.3629  0.3628  1.1534
H  -3.1116  -1.7681  -0.0623
H  -0.8680  -2.3341  -1.0057
*