! b97-3c opt
%maxcore 5000
* xyz 0 1
C  1.3880  -1.2910  -0.0790
C  0.6442  0.0115  -0.0085
C  1.4038  1.2697  0.0327
C  -0.6613  0.0002  0.0148
C  -1.4104  -1.2941  -0.0281
C  -1.3760  1.3080  0.0850
H  1.4792  -1.6115  -1.1315
H  0.8376  -2.0471  0.5241
H  2.3714  -1.1380  0.3679
H  1.6535  1.5858  -1.0032
H  2.3307  1.1175  0.6354
H  0.8013  2.0776  0.4937
H  -2.4994  -1.1356  -0.0544
H  -1.1207  -1.7927  -0.9784
H  -1.1667  -1.8798  0.8646
H  -1.3530  1.6308  1.1508
H  -0.9217  2.0584  -0.5985
H  -2.4004  1.1301  -0.2875
*