! b97-3c opt
%maxcore 5000
* xyz 0 1
C  3.0987  2.2022  0.5404
C  2.3510  0.9140  0.5005
C  3.0441  -0.1701  0.1724
C  2.4756  -1.5231  0.0825
C  1.5090  -1.5237  -1.1001
C  0.1415  -1.8131  -0.5953
C  0.0225  -2.8867  0.1797
C  -0.9759  -0.9708  -0.9395
C  -2.0332  -1.0658  0.1744
C  -2.2759  0.4033  -0.0226
C  -2.2505  1.2094  1.2262
C  -3.5522  0.6170  -0.7967
C  -0.9871  0.4542  -0.8572
C  0.0783  1.2938  -0.3244
C  0.8835  0.9006  0.8241
H  2.4362  3.0557  0.2423
H  3.4056  2.3410  1.6108
H  3.9764  2.2199  -0.1127
H  4.1239  -0.0766  -0.0535
H  1.9441  -1.8251  1.0064
H  3.2551  -2.2850  -0.1147
H  1.7906  -2.3348  -1.8251
H  1.5893  -0.5935  -1.6758
H  0.8605  -3.5190  0.4350
H  -0.9867  -3.1249  0.5696
H  -1.4704  -1.3961  -1.8684
H  -2.8761  -1.7435  -0.0372
H  -1.5956  -1.2756  1.1778
H  -2.0507  2.2749  1.1033
H  -3.2862  1.1372  1.6694
H  -1.5807  0.7247  1.9645
H  -3.4804  -0.0148  -1.7307
H  -4.3806  0.2667  -0.1784
H  -3.6674  1.6851  -1.1233
H  -1.2991  0.9219  -1.8508
H  0.7731  1.5899  -1.1712
H  -0.4142  2.2992  -0.1090
H  0.7963  1.6669  1.6593
H  0.6082  -0.0356  1.3479
*