! b97-3c opt
%maxcore 5000
* xyz 0 1
C  2.3612  1.0964  0.2055
C  1.5316  0.0361  -0.5330
C  1.3872  -1.1494  0.3447
C  0.1299  -1.9025  0.2457
C  -1.0867  -1.1743  -0.1421
C  -0.9692  0.3166  -0.1926
C  -1.0767  0.8542  1.2071
C  -2.1617  0.8520  -0.9711
C  0.2569  0.6837  -0.8917
O  0.2821  1.5256  -1.7861
H  3.3471  0.6530  0.3611
H  1.8200  1.2829  1.1667
H  2.3999  2.0171  -0.4281
H  2.0831  -0.2338  -1.4397
H  2.2433  -1.8534  0.1237
H  1.5718  -0.8445  1.4163
H  -0.0541  -2.4150  1.2357
H  0.2685  -2.7643  -0.4712
H  -1.4695  -1.5002  -1.1530
H  -1.9467  -1.3991  0.5511
H  -2.1498  0.6937  1.5214
H  -0.4790  0.2842  1.9460
H  -0.8827  1.9301  1.2920
H  -2.8071  0.0378  -1.3589
H  -1.8220  1.4244  -1.8809
H  -2.7773  1.5487  -0.3683
*