! b97-3c opt
%maxcore 5000
* xyz 0 1
C  2.0065  -0.5141  0.0731
C  0.6803  -0.0383  -0.4435
C  0.1104  0.9279  0.5833
C  -1.3702  0.9074  0.3186
C  -1.6589  -0.4361  -0.3137
C  -0.3427  -1.0757  -0.5364
O  -0.1941  -2.2553  -0.7535
H  2.7451  0.3066  -0.1225
H  1.9812  -0.6935  1.1675
H  2.3897  -1.3970  -0.4630
H  0.8626  0.4856  -1.4091
H  0.3275  0.5173  1.5856
H  0.5454  1.9116  0.3950
H  -1.9373  0.9428  1.2682
H  -1.6094  1.7212  -0.3639
H  -2.2022  -0.2527  -1.2780
H  -2.3337  -1.0577  0.2924
*