! b97-3c opt
%maxcore 5000
* xyz 0 1
C  -2.1597  0.4031  0.9089
C  -0.9261  0.1719  0.0549
C  -1.0316  0.7595  -1.2996
C  -0.4735  -1.2573  0.1583
C  0.2645  -0.8519  1.4431
C  0.3067  0.5500  0.8613
C  1.4480  0.5881  -0.0830
C  2.1772  1.6579  -0.2386
C  1.6857  -0.6640  -0.8193
O  2.7825  -0.8680  -1.3904
C  0.5666  -1.6415  -0.8377
H  -2.1793  -0.3298  1.7387
H  -3.0917  0.2586  0.3112
H  -2.0954  1.4430  1.3011
H  -2.1252  0.7899  -1.5747
H  -0.4836  0.2522  -2.0937
H  -0.7184  1.8421  -1.3431
H  -1.2394  -1.9862  0.4004
H  1.2776  -1.2756  1.5169
H  -0.3387  -0.9730  2.3498
H  0.2014  1.3713  1.5546
H  1.9426  2.5365  0.3350
H  3.0080  1.6792  -0.9288
H  1.0159  -2.6154  -0.4818
H  0.1856  -1.8405  -1.8433
*