! b97-3c opt
%maxcore 5000
* xyz 0 1
C  3.0621  2.3459  -0.5767
C  2.4164  1.1502  0.1293
C  1.1073  1.3227  0.7920
C  -0.0846  1.2244  -0.1244
C  -0.9549  0.1181  0.3468
C  -1.1849  -0.9425  -0.7401
C  -2.5442  -1.1264  -0.1489
C  -2.4465  0.3447  0.2962
C  -2.9456  1.2402  -0.7832
C  -3.0906  0.5171  1.6504
C  -0.2277  -2.0415  -0.6804
C  -0.6236  -3.2473  -0.2943
C  1.1858  -1.7747  -1.0617
C  2.0518  -1.3380  0.0740
C  2.8876  -0.1431  -0.2136
C  3.4551  0.4897  1.0526
O  4.1583  0.5035  2.0311
H  2.5220  2.6345  -1.4782
H  3.1977  3.1704  0.1587
H  4.1028  2.0470  -0.8711
H  0.9869  0.6572  1.6875
H  1.0791  2.3654  1.2275
H  -0.6951  2.1581  -0.1457
H  0.2556  1.0875  -1.1889
H  -0.6861  -0.3045  1.3306
H  -1.2006  -0.4732  -1.7440
H  -2.5489  -1.8037  0.7341
H  -3.3795  -1.3026  -0.8294
H  -3.8731  0.7602  -1.2138
H  -3.2322  2.2057  -0.3314
H  -2.1883  1.3493  -1.5573
H  -3.1939  1.6115  1.8740
H  -2.3990  0.0624  2.3961
H  -4.0812  0.0274  1.6658
H  -1.6415  -3.4612  -0.0157
H  0.0853  -4.0623  -0.2497
H  1.2056  -1.0039  -1.8831
H  1.5744  -2.7077  -1.5685
H  1.5169  -1.2001  1.0322
H  2.7684  -2.1918  0.2728
H  3.6031  -0.2685  -1.0515
*