! b97-3c opt
%maxcore 5000
* xyz 0 1
C  3.5961  -1.9314  -0.1361
C  2.4076  -0.9852  0.0985
C  1.1704  -1.6339  0.5527
C  -0.0593  -1.3245  -0.2635
C  -0.9522  -0.2779  0.3777
C  -0.9511  0.9099  -0.4544
C  -2.4355  1.0728  -0.1776
C  -2.4256  -0.4622  -0.0591
C  -2.5932  -1.1686  -1.3600
C  -3.3264  -1.0128  0.9944
C  -0.0833  2.0460  -0.1874
C  -0.3497  3.0756  -0.9971
C  0.9726  2.2334  0.7721
C  1.7650  1.1239  1.3190
C  2.6874  0.3916  0.4332
C  2.3705  0.0701  -0.9930
O  2.2049  0.3976  -2.1592
H  4.4669  -1.5500  0.4185
H  3.3588  -2.9601  0.2176
H  3.8375  -2.0096  -1.2073
H  0.9016  -1.5005  1.6252
H  1.2750  -2.7616  0.4759
H  -0.7025  -2.2084  -0.4462
H  0.2972  -0.9962  -1.2637
H  -0.9767  -0.2441  1.4603
H  -0.8519  0.6240  -1.5464
H  -2.6921  1.5697  0.7649
H  -3.0132  1.4073  -1.0659
H  -3.4344  -0.6532  -1.9098
H  -1.7304  -1.1542  -2.0231
H  -2.9792  -2.1914  -1.1567
H  -4.2621  -0.4262  1.0600
H  -3.4924  -2.0800  0.7908
H  -2.7985  -0.9490  1.9724
H  0.2466  3.9832  -0.8806
H  -1.1170  3.0598  -1.7558
H  1.7254  2.9897  0.3857
H  0.5268  2.7825  1.6578
H  2.4192  1.6469  2.1071
H  1.2029  0.4531  2.0381
H  3.7942  0.6439  0.5211
*