! b97-3c opt
%maxcore 5000
* xyz 0 1
C  -2.6051  -2.0046  -0.1343
C  -2.6835  -0.5414  -0.4623
C  -2.0430  -0.1932  -1.7675
C  -0.6842  0.4636  -1.5452
C  0.0511  -0.2009  -0.3689
C  -0.6640  0.0389  0.9213
C  -0.1340  1.0987  1.8035
C  1.1187  1.7734  1.3263
C  2.0238  0.6412  0.8738
C  3.4363  1.0510  0.8756
C  4.2762  -0.0364  0.3150
O  5.3379  -0.3858  0.7965
C  3.7885  -0.7254  -0.8923
C  2.3260  -1.0842  -0.8096
C  1.4827  0.1434  -0.4278
C  1.8053  1.1494  -1.5431
C  -2.0851  0.3441  0.5910
C  -3.0722  0.0665  1.7005
C  -4.3432  0.2014  0.8849
C  -4.1067  -0.1521  -0.3667
H  -2.2972  -2.5520  -1.0717
H  -1.8936  -2.2739  0.6362
H  -3.5865  -2.4488  0.1411
H  -1.8583  -1.1644  -2.3048
H  -2.6515  0.4716  -2.3839
H  -0.1144  0.2479  -2.4718
H  -0.8568  1.5333  -1.3629
H  -0.0697  -1.2924  -0.5989
H  -0.6776  -0.9104  1.5385
H  0.0909  0.7467  2.8557
H  -0.8862  1.9263  1.9717
H  0.8901  2.4754  0.5077
H  1.5469  2.3322  2.1828
H  1.9011  -0.1969  1.6173
H  3.6487  2.0404  0.4293
H  3.7537  1.1582  1.9563
H  4.3342  -1.6684  -1.0951
H  3.9764  -0.0753  -1.7828
H  2.0034  -1.3454  -1.8423
H  2.1493  -1.9284  -0.1438
H  2.8279  1.5597  -1.3717
H  1.8888  0.6143  -2.5338
H  1.1200  1.9910  -1.5599
H  -2.2356  1.3904  0.2824
H  -2.9916  -0.9308  2.1296
H  -3.0677  0.8953  2.4119
H  -5.3044  0.5364  1.2633
H  -4.8657  -0.1445  -1.1709
*