! b97-3c opt
%maxcore 5000
* xyz 0 1
O  -1.4074  -1.4686  -0.9681
C  -0.7914  -0.6475  -0.2903
C  0.5334  -0.7996  0.3377
C  1.3906  0.3609  -0.1247
S  0.1563  1.7214  -0.0987
C  -1.3699  0.7049  -0.0082
H  0.4163  -0.7439  1.4408
H  0.9566  -1.7537  0.0170
H  1.8237  0.2237  -1.1100
H  2.1334  0.5872  0.6468
H  -2.0158  1.0476  -0.8272
H  -1.8257  0.7676  0.9850
*