! b97-3c opt
%maxcore 5000
* xyz 0 1
C  -1.0699  -0.4801  -1.0617
C  -0.3360  0.1776  0.0792
C  -0.7897  1.5765  0.3431
C  -0.4754  -0.7244  1.2842
O  0.4539  -1.7662  1.0143
C  1.3708  -1.3688  0.0567
O  2.2255  -2.0352  -0.5780
C  1.1733  0.1050  -0.1248
O  1.5776  0.5592  -1.3449
H  -2.1569  -0.2675  -0.8995
H  -0.9706  -1.5927  -0.9793
H  -0.7866  -0.1011  -2.0470
H  -0.4943  2.1956  -0.5329
H  -1.8755  1.6036  0.4079
H  -0.2942  1.9231  1.2726
H  -1.4957  -1.1581  1.3580
H  -0.1699  -0.2369  2.2228
H  1.6380  0.5884  0.7449
H  2.4756  1.0020  -1.2156
*