! b97-3c opt
%maxcore 5000
* xyz 0 1
C  -2.0216  -0.0122  0.1437
C  -0.6252  0.0253  -0.4269
C  0.3468  -0.8056  0.3865
C  1.6761  -0.2103  -0.0971
C  1.3168  1.2308  -0.1397
O  2.1036  2.2001  -0.0030
O  -0.0503  1.3086  -0.3587
H  -2.6439  0.6572  -0.4516
H  -2.3610  -1.0562  0.1391
H  -1.9673  0.4170  1.1719
H  -0.6667  -0.3811  -1.4554
H  0.2701  -0.5262  1.4523
H  0.2777  -1.8755  0.1965
H  1.8483  -0.5482  -1.1433
H  2.4966  -0.4239  0.5857
*