! b97-3c opt
%maxcore 5000
* xyz 0 1
C  3.0103  0.5035  -1.4694
C  2.0718  -0.4732  -0.7748
C  2.3136  -0.4900  0.6960
C  0.9239  -0.5012  1.2709
C  0.0190  -0.2900  0.0960
O  0.7914  -0.0729  -1.0184
C  -0.9504  -1.4041  -0.0881
C  -0.7778  -2.7372  0.5823
C  -1.9874  -1.1549  -0.8848
C  -2.2225  0.1169  -1.5713
C  -1.6604  1.3103  -0.8580
C  -0.8097  0.9703  0.3234
C  -1.7123  0.8176  1.5415
C  0.1078  2.1682  0.5747
H  2.4539  1.1560  -2.1773
H  3.7880  -0.0191  -2.0637
H  3.5181  1.1655  -0.7551
H  2.2545  -1.4598  -1.2388
H  2.8894  -1.4224  0.9488
H  2.9356  0.3483  1.0529
H  0.7755  0.2198  2.0913
H  0.7468  -1.5490  1.6431
H  0.2310  -3.1610  0.3962
H  -1.5072  -3.4365  0.1665
H  -0.9949  -2.6569  1.6814
H  -2.6923  -1.9615  -1.0203
H  -3.3116  0.2429  -1.7370
H  -1.7752  0.0275  -2.5985
H  -1.0967  1.9422  -1.5860
H  -2.4989  1.9427  -0.5001
H  -1.1357  1.1447  2.4345
H  -2.0436  -0.2183  1.6229
H  -2.6012  1.4614  1.3871
H  0.2395  2.7344  -0.3919
H  1.0898  1.8786  0.9445
H  -0.3823  2.8572  1.2794
*