! b97-3c opt
%maxcore 5000
* xyz 0 1
C  3.2795  -0.5948  0.4993
C  2.2045  0.4772  0.3801
C  1.9705  0.7848  -1.0804
C  0.6869  0.0236  -1.3316
C  0.0225  0.1054  0.0074
O  1.0486  -0.0307  0.8957
C  -0.6377  1.4329  0.2409
C  0.0488  2.5012  1.0210
C  -1.8481  1.5773  -0.2863
C  -2.5613  0.5462  -1.0627
C  -2.1336  -0.8496  -0.8050
C  -1.0040  -0.9963  0.1749
C  -1.4831  -1.0479  1.6106
C  -0.3364  -2.3259  -0.1141
H  3.0598  -1.1878  1.4235
H  4.2843  -0.1701  0.6460
H  3.2460  -1.3035  -0.3392
H  2.5977  1.3750  0.8509
H  1.8876  1.8598  -1.2960
H  2.7954  0.3254  -1.6971
H  0.0886  0.4702  -2.1483
H  0.9575  -1.0273  -1.5137
H  -0.6658  3.2114  1.4796
H  0.7660  3.0822  0.4371
H  0.5229  1.9687  1.8977
H  -2.3304  2.5325  -0.1223
H  -3.6590  0.6637  -0.8234
H  -2.5059  0.7569  -2.1578
H  -1.8344  -1.3456  -1.7386
H  -2.9875  -1.4403  -0.4000
H  -0.9152  -1.8243  2.1966
H  -1.3336  -0.0966  2.1320
H  -2.5406  -1.3759  1.5795
H  -0.4172  -2.5955  -1.2021
H  -0.9710  -3.1009  0.4038
H  0.6974  -2.3813  0.2421
*