! b97-3c opt
%maxcore 5000
* xyz 0 1
C  3.5026  -1.3788  0.9619
C  2.9058  -0.5264  -0.1357
C  2.0701  -1.3303  -1.0725
C  0.6684  -1.5987  -0.5774
C  0.1886  -0.5099  0.3403
C  0.8573  0.7700  -0.1697
C  0.0839  1.9896  0.2254
C  -1.2905  1.9503  -0.3591
C  -1.7527  0.5228  -0.6729
C  -3.1776  0.4637  -1.0229
C  -4.0592  -0.3716  -0.1749
O  -4.6440  0.4094  0.8520
C  -3.4628  -1.6077  0.3805
C  -1.9806  -1.7156  0.2611
C  -1.2971  -0.3847  0.4246
C  -1.6365  0.1413  1.8092
C  2.2392  0.7084  0.3968
C  3.0991  1.8735  0.1511
C  4.1526  1.3462  -0.7568
C  4.0461  0.0375  -0.9124
H  2.7446  -1.7074  1.6938
H  3.9297  -2.2724  0.4990
H  4.3366  -0.8177  1.4274
H  2.5591  -2.3364  -1.1718
H  2.0835  -0.9004  -2.0960
H  0.5601  -2.6130  -0.1524
H  0.0187  -1.5806  -1.4986
H  0.5626  -0.7660  1.3598
H  0.9326  0.7316  -1.2747
H  0.5977  2.8636  -0.2322
H  0.1090  2.1652  1.3197
H  -1.3350  2.4763  -1.3593
H  -2.0521  2.4875  0.2601
H  -1.1391  0.2415  -1.5814
H  -3.3275  0.1689  -2.1049
H  -3.5882  1.5181  -0.9906
H  -4.9528  -0.6796  -0.7978
H  -4.4336  1.3713  0.7200
H  -3.7756  -1.7034  1.4622
H  -3.8948  -2.5397  -0.0928
H  -1.7520  -2.2005  -0.7032
H  -1.6345  -2.4010  1.0875
H  -2.3494  -0.5452  2.3460
H  -0.7260  0.1483  2.4788
H  -2.0141  1.1621  1.8094
H  2.1153  0.5367  1.5077
H  3.6357  2.1473  1.1070
H  2.6335  2.7840  -0.2070
H  4.8947  1.9897  -1.2121
H  4.7487  -0.5179  -1.5548
*