! b97-3c opt
%maxcore 5000
* xyz 0 1
C  -0.8432  3.6127  0.3670
C  -0.6789  2.3278  -0.3778
C  -1.6544  1.4517  -0.4130
C  -1.7631  0.1343  -1.0593
C  -1.7939  -1.0580  -0.1182
C  -1.9251  -0.6581  1.3317
C  -3.1388  -1.7740  -0.4031
C  -0.6840  -2.0151  -0.3670
C  0.5202  -2.0935  0.0674
C  1.3323  -1.2780  0.9990
C  2.5911  -0.7083  0.4678
C  3.7970  -1.5823  0.2367
O  2.9321  0.5199  1.2384
C  2.6024  0.6958  -0.0689
C  1.2156  0.8868  -0.5844
C  0.6865  2.1863  -1.0112
H  -0.4227  3.4680  1.3990
H  -1.8891  3.9325  0.4498
H  -0.2875  4.4416  -0.1147
H  -2.5799  1.7390  0.1494
H  -2.7662  0.2039  -1.6150
H  -1.0880  -0.0373  -1.9196
H  -1.4197  0.3007  1.5551
H  -1.5701  -1.4960  1.9572
H  -2.9912  -0.4993  1.5895
H  -3.0760  -2.0459  -1.4805
H  -3.9727  -1.1124  -0.1779
H  -3.1018  -2.6929  0.2022
H  -0.9757  -2.8250  -1.0874
H  1.1237  -2.9592  -0.3328
H  1.7321  -2.0761  1.7388
H  0.7548  -0.6641  1.7124
H  3.6002  -2.1798  -0.6776
H  4.6509  -0.9077  -0.0170
H  4.0639  -2.1825  1.1140
H  3.4001  0.8745  -0.8126
H  0.6387  0.6696  0.3344
H  1.1497  0.2089  -1.4240
H  1.3789  2.9739  -0.7289
H  0.4516  2.2174  -2.1188
*