! b97-3c opt
%maxcore 5000
* xyz 0 1
C  2.7149  0.8144  -0.0546
C  1.4558  0.0548  -0.1096
C  1.2776  -0.8565  -1.0627
C  -0.0078  -1.5920  -1.0719
C  -0.9183  -1.0986  -0.0039
C  -0.1242  -1.1072  1.3114
C  0.3792  0.2740  0.8657
C  -0.9374  0.4053  0.1462
C  -2.1028  0.7902  1.0513
C  -0.9560  1.2060  -1.1020
H  2.5443  1.8574  -0.4159
H  3.5306  0.3609  -0.6437
H  3.0321  0.8788  1.0027
H  2.0383  -1.0675  -1.8171
H  -0.4748  -1.6392  -2.0694
H  0.2492  -2.6629  -0.8177
H  -1.8675  -1.6176  0.1007
H  0.6395  -1.8767  1.3754
H  -0.8196  -1.0658  2.1480
H  0.5675  0.9706  1.6774
H  -2.9361  0.1004  0.7942
H  -2.4451  1.8034  0.8279
H  -1.8245  0.7473  2.1220
H  0.0375  1.4706  -1.5090
H  -1.4661  2.1695  -0.8963
H  -1.5861  0.6805  -1.8491
*