! b97-3c opt
%maxcore 5000
* xyz 0 1
C  2.7179  -1.6219  0.1880
C  2.1737  -0.2487  -0.0202
C  3.1171  0.8832  -0.0207
C  0.8843  -0.0708  -0.1971
C  0.2782  1.2574  -0.4083
C  -1.0547  1.2024  -1.0981
C  -1.9852  0.1748  -0.5634
C  -3.2645  0.7369  -0.0125
O  -2.3486  -0.6703  -1.6364
C  -1.3287  -0.7495  0.4629
C  -0.0489  -1.2500  -0.1905
H  2.3118  -2.0806  1.1125
H  3.8049  -1.6574  0.1048
H  2.3125  -2.2446  -0.6610
H  4.1330  0.5755  0.2757
H  2.8127  1.6648  0.7337
H  3.2051  1.3813  -1.0019
H  0.9730  1.8296  -1.0835
H  0.1520  1.8297  0.5358
H  -0.8806  1.1053  -2.2090
H  -1.5378  2.2013  -0.9815
H  -3.1901  1.8040  0.2629
H  -3.5201  0.1894  0.9319
H  -4.1450  0.5427  -0.6914
H  -2.5586  -1.5908  -1.2839
H  -1.0959  -0.0809  1.3409
H  -2.0278  -1.5461  0.7121
H  -0.2704  -1.4528  -1.2673
H  0.3808  -2.1138  0.3283
*