! b97-3c opt
%maxcore 5000
* xyz 0 1
C  1.8931  -0.1226  0.1159
C  0.4160  -0.1183  0.0597
C  -0.3987  0.9250  -0.3054
C  -1.6948  0.4603  -0.2042
C  -1.5832  -0.8408  0.2175
O  -0.3194  -1.1597  0.3667
H  2.3147  0.9048  0.2096
H  2.2131  -0.7760  0.9525
H  2.2825  -0.6030  -0.8144
H  -0.1135  1.9352  -0.6190
H  -2.6328  0.9603  -0.3995
H  -2.3772  -1.5653  0.4206
*