! b97-3c opt
%maxcore 5000
* xyz 0 1
C  3.4050  0.1638  1.0574
C  2.5163  0.2777  -0.1320
C  3.0800  1.1261  -1.2143
C  1.9719  -1.0551  -0.6650
C  0.8220  -0.8400  0.3305
C  1.0632  0.5899  0.2514
C  0.4157  1.3919  -0.7879
C  -0.9885  1.7926  -0.3290
C  -1.8999  0.6239  -0.2151
C  -3.2100  0.9860  -0.9259
C  -2.2333  0.3601  1.2123
C  -2.4528  -1.1098  1.4516
C  -1.1921  -1.8729  1.2275
C  -0.4535  -1.4235  -0.0393
O  -0.1941  -2.6152  -0.7632
C  -1.3932  -0.6299  -0.8654
H  2.9718  0.7897  1.8714
H  3.4420  -0.8869  1.4019
H  4.4220  0.5492  0.8462
H  4.0007  0.6181  -1.5948
H  2.4286  1.2752  -2.0772
H  3.3550  2.1179  -0.7814
H  2.6650  -1.8575  -0.3982
H  1.6613  -1.0125  -1.7160
H  1.1910  -1.2496  1.3206
H  1.0679  1.1038  1.2337
H  0.4296  0.9853  -1.7982
H  0.9658  2.3801  -0.8536
H  -1.3468  2.5846  -1.0065
H  -0.8437  2.2685  0.6805
H  -4.0088  0.3156  -0.6046
H  -3.0069  0.7936  -2.0108
H  -3.4391  2.0519  -0.8292
H  -3.1753  0.8761  1.5372
H  -1.4455  0.6974  1.9142
H  -2.7537  -1.2446  2.5101
H  -3.2573  -1.5415  0.8367
H  -0.5408  -1.7013  2.1351
H  -1.4213  -2.9419  1.2268
H  0.6801  -2.9871  -0.5226
H  -0.9888  -0.4733  -1.8849
H  -2.3094  -1.2765  -1.0299
*