! b97-3c opt
%maxcore 5000
* xyz 0 1
C  3.6063  0.3311  0.8509
C  2.5478  0.1316  -0.1862
C  3.0257  -0.5116  -1.4420
C  1.6764  1.3832  -0.4033
C  0.8690  0.8922  0.7281
C  1.2553  -0.5122  0.3507
C  0.5056  -1.0832  -0.7996
C  -0.7377  -1.8259  -0.4084
C  -1.8328  -0.9340  0.1194
C  -2.8661  -1.8862  0.7490
C  -2.4685  -0.1944  -1.0111
C  -2.5750  1.2728  -0.6995
C  -1.2084  1.8649  -0.3330
C  -0.5781  1.1574  0.8161
O  -0.7586  2.0302  1.9308
C  -1.3750  -0.0704  1.2504
H  4.6058  0.3027  0.3424
H  3.5494  1.3734  1.2792
H  3.5647  -0.3873  1.6792
H  3.9896  -0.0816  -1.7334
H  3.1970  -1.5963  -1.2306
H  2.2659  -0.3692  -2.2360
H  2.2630  2.3211  -0.2152
H  1.3186  1.3708  -1.4164
H  1.4405  1.1181  1.6844
H  1.4019  -1.2282  1.1549
H  0.2218  -0.3419  -1.5695
H  1.1701  -1.8185  -1.3074
H  -0.5087  -2.6744  0.2700
H  -1.1305  -2.3059  -1.3501
H  -2.3623  -2.6308  1.3690
H  -3.4926  -1.2539  1.4191
H  -3.5375  -2.2987  -0.0228
H  -1.9375  -0.3056  -1.9762
H  -3.5013  -0.5646  -1.1684
H  -3.3043  1.4296  0.1295
H  -2.9185  1.7948  -1.6172
H  -0.6347  1.8897  -1.2591
H  -1.4661  2.9471  -0.1187
H  -0.2043  1.6509  2.6774
H  -2.3144  0.2758  1.7740
H  -0.7614  -0.6625  1.9293
*