! b97-3c opt
%maxcore 5000
* xyz 0 1
C  -2.6787  1.1256  1.0163
C  -2.1147  0.0755  0.1217
C  -2.9919  -0.4994  -0.9009
C  -0.8487  -0.2801  0.3017
C  -0.1720  -1.3138  -0.5244
C  0.9918  -0.6103  -1.2103
C  1.9418  -0.1461  -0.1385
C  3.0942  0.5604  -0.8546
O  2.4682  -1.2513  0.4977
C  1.3058  0.8358  0.7996
C  -0.0022  0.3373  1.3567
H  -3.7370  1.3564  0.7785
H  -2.0881  2.0713  0.9682
H  -2.7007  0.7338  2.0738
H  -3.6166  -1.3526  -0.5057
H  -3.7613  0.2705  -1.2050
H  -2.4952  -0.7992  -1.8311
H  0.3027  -2.0373  0.1904
H  -0.8063  -1.7903  -1.2607
H  0.5463  0.2542  -1.7555
H  1.5411  -1.2937  -1.8815
H  2.8728  1.6455  -0.9190
H  4.0227  0.3408  -0.3042
H  3.1662  0.2047  -1.9124
H  2.8015  -1.8634  -0.2116
H  1.1926  1.7973  0.2464
H  2.0107  0.9928  1.6490
H  0.2618  -0.4892  2.0803
H  -0.5068  1.1252  1.9150
*