! b97-3c opt
%maxcore 5000
* xyz 0 1
O  -2.9920  -1.1277  0.7909
C  -2.4146  -0.5517  -0.3402
C  -2.2574  0.9398  -0.2021
C  -1.1554  1.2294  0.8097
C  0.1152  0.7165  0.2154
C  1.3259  0.9556  1.0954
C  2.5437  0.7608  0.1805
C  2.5388  -0.6955  -0.2417
C  1.2873  -0.9851  -1.0399
C  0.0826  -0.7389  -0.1204
C  -1.1579  -1.2187  -0.7596
H  -2.5083  -0.9536  1.6164
H  -3.1690  -0.7065  -1.1674
H  -3.1962  1.4366  0.0290
H  -1.8898  1.3152  -1.1853
H  -1.0757  2.3370  0.8798
H  -1.3525  0.7743  1.7908
H  0.3101  1.3100  -0.7256
H  1.3853  0.0942  1.8154
H  1.3279  1.9307  1.5848
H  3.4542  1.0132  0.7314
H  2.3531  1.4239  -0.6968
H  3.4303  -0.9121  -0.8811
H  2.5174  -1.2933  0.6842
H  1.2345  -0.2212  -1.8619
H  1.2592  -2.0118  -1.3974
H  0.2923  -1.3569  0.7950
H  -1.2652  -2.3185  -0.5227
H  -1.0239  -1.1455  -1.8766
*