! b97-3c opt
%maxcore 5000
* xyz 0 1
C  -3.9941  -0.1556  -0.1953
C  -2.5251  0.0822  -0.0163
C  -1.5868  -0.7991  -0.5133
C  -0.2406  -0.5537  -0.3330
C  0.2279  0.5584  0.3372
C  -0.7116  1.4390  0.8338
C  -2.0569  1.1938  0.6537
C  1.5915  0.7728  0.4996
C  2.5275  -0.1105  0.0013
C  3.9852  0.1447  0.1903
C  2.0607  -1.2229  -0.6691
C  0.7071  -1.4302  -0.8270
H  -4.4989  0.8254  -0.0489
H  -4.1666  -0.5101  -1.2304
H  -4.2816  -0.8949  0.5720
H  -1.9183  -1.6875  -1.0476
H  -0.3431  2.3119  1.3599
H  -2.7995  1.8766  1.0383
H  1.9085  1.6638  1.0351
H  4.5811  -0.0805  -0.7009
H  4.1129  1.2314  0.4041
H  4.3464  -0.3962  1.0950
H  2.7641  -1.9538  -1.0833
H  0.3102  -2.3050  -1.3550
*