! b97-3c opt
%maxcore 5000
* xyz 0 1
C  -2.4960  0.2926  -0.0343
C  -1.1690  -0.2654  0.3053
C  -0.0540  0.7625  0.3197
C  1.1540  -0.1731  0.3673
C  2.4397  0.5614  0.1428
C  0.8170  -1.1392  -0.6755
O  1.6436  -1.7804  -1.3541
C  -0.6355  -1.1963  -0.7553
O  -1.3470  -1.8620  -1.5249
H  -3.2345  -0.0771  0.7323
H  -2.8492  0.0501  -1.0596
H  -2.5056  1.4083  0.0938
H  -1.1204  -0.8031  1.2669
H  -0.0898  1.4385  1.1687
H  -0.0822  1.2720  -0.6668
H  1.1938  -0.6737  1.3367
H  2.6510  1.1518  1.0606
H  2.4434  1.2111  -0.7462
H  3.2407  -0.1780  0.0226
*