! b97-3c opt
%maxcore 5000
* xyz 0 1
C  -2.2606  -0.3430  -0.5552
C  -1.2031  0.2834  0.2894
C  -0.1285  -0.7142  0.5723
C  1.1774  0.0185  0.6767
C  2.2008  -0.6368  -0.2279
C  0.8431  1.3959  0.1929
O  1.6736  2.3475  0.2959
C  -0.5049  1.4105  -0.3658
O  -0.8895  2.2405  -1.2128
H  -2.1928  0.0198  -1.6199
H  -3.2871  -0.1314  -0.1530
H  -2.1911  -1.4590  -0.6043
H  -1.6317  0.6910  1.2415
H  -0.3559  -1.2739  1.5017
H  -0.0911  -1.4400  -0.2761
H  1.5890  0.0520  1.6894
H  1.7889  -1.6116  -0.6093
H  2.3263  0.0224  -1.1131
H  3.1372  -0.8717  0.2776
*