! b97-3c opt
%maxcore 5000
* xyz 0 1
C  -3.0468  -0.0903  -0.6904
C  -1.5498  -0.0778  -0.5108
C  -1.1620  -1.3279  0.2727
C  0.3243  -1.5070  0.1793
C  0.9415  -0.1473  0.2784
C  2.0669  0.4083  -0.1177
C  3.1183  -0.3379  -0.8656
C  2.1446  1.8127  0.2513
O  3.0784  2.6336  0.0278
O  0.9651  2.0893  0.9149
C  0.1821  0.9194  0.9854
C  -1.1047  1.1738  0.2252
H  -3.5706  -0.1234  0.2966
H  -3.3444  0.8036  -1.2904
H  -3.3211  -0.9721  -1.2946
H  -1.0795  -0.1739  -1.5068
H  -1.6641  -2.1788  -0.2339
H  -1.4801  -1.2421  1.3423
H  0.5651  -1.9683  -0.8171
H  0.7425  -2.1771  0.9575
H  3.4703  -1.2135  -0.2811
H  2.6263  -0.7491  -1.7821
H  3.9496  0.3177  -1.1890
H  0.0043  0.6831  2.0494
H  -0.9693  1.9957  -0.5035
H  -1.8869  1.4493  0.9538
*