! b97-3c opt
%maxcore 5000
* xyz 0 1
C  -2.9055  0.0426  0.2123
C  -1.4142  0.0066  0.0902
C  -0.6384  0.9263  0.7668
C  0.7373  0.9042  0.6629
C  1.3964  -0.0271  -0.1130
C  2.8801  -0.0454  -0.2208
C  0.6185  -0.9451  -0.7881
C  -0.7614  -0.9209  -0.6823
H  -3.3704  -0.1726  -0.7718
H  -3.1946  1.0605  0.5675
H  -3.2503  -0.6559  1.0070
H  -1.1196  1.6827  1.3936
H  1.3667  1.6276  1.1939
H  3.2132  0.6309  -1.0198
H  3.3619  0.2965  0.7327
H  3.2801  -1.0667  -0.3987
H  1.1427  -1.6830  -1.4031
H  -1.3424  -1.6610  -1.2294
*