! b97-3c opt
%maxcore 5000
* xyz 0 1
C  3.1780  0.2182  -0.1546
C  1.7875  0.2396  0.4504
C  1.0167  1.4521  0.0795
C  -0.4534  1.4023  0.2323
C  -0.9765  0.0114  0.2300
C  -2.0805  -0.5064  -0.2363
C  -3.1699  0.2397  -0.9349
C  -2.1306  -1.9509  -0.0034
O  -3.0562  -2.7476  -0.3288
O  -0.9410  -2.2492  0.6510
C  -0.1942  -1.1030  0.8517
C  1.1475  -1.0718  0.1540
H  3.7402  1.1287  0.0567
H  3.0622  -0.0080  -1.2298
H  3.7158  -0.6348  0.3035
H  1.9533  0.2784  1.5681
H  1.2723  1.6924  -0.9951
H  1.4043  2.3517  0.6426
H  -0.9142  2.0241  -0.5617
H  -0.7423  1.8826  1.2020
H  -4.1330  -0.3118  -0.9133
H  -3.3610  1.2226  -0.4523
H  -2.8644  0.3471  -1.9877
H  -0.0014  -0.8726  1.9215
H  0.9439  -1.1641  -0.9368
H  1.7967  -1.8706  0.5353
*