! b97-3c opt
%maxcore 5000
* xyz 0 1
C  -1.1963  -1.2975  0.8584
C  -0.5306  -0.0467  0.4598
C  -1.3899  0.8450  -0.4358
C  -0.3906  1.8818  -0.7839
O  -0.6273  3.0827  -1.0208
C  0.9032  1.2207  -0.7922
O  2.0284  1.7126  -1.0425
C  0.6679  -0.2135  -0.4366
C  1.8467  -0.8266  0.2410
H  -1.9295  -1.6567  0.1365
H  -0.4110  -2.0647  1.0987
H  -1.7135  -1.1192  1.8472
H  -0.2318  0.5743  1.3194
H  -2.2667  1.2296  0.0756
H  -1.6230  0.2365  -1.3384
H  0.3899  -0.7239  -1.3928
H  1.5836  -1.6654  0.8803
H  2.5744  -1.1190  -0.5601
H  2.3161  -0.0500  0.8863
*