! b97-3c opt
%maxcore 5000
* xyz 0 1
C  3.1489  0.1728  -0.1967
C  1.6837  -0.0956  -0.0806
C  0.7477  0.9039  -0.1771
C  -0.6123  0.6595  -0.0701
C  -1.5747  1.7850  -0.1836
C  -1.0768  -0.6235  0.1415
C  -2.5343  -0.9360  0.2636
C  -0.1313  -1.6253  0.2379
C  1.2297  -1.3813  0.1308
H  3.5435  -0.0855  -1.1921
H  3.3352  1.2702  -0.0388
H  3.7176  -0.3627  0.5919
H  1.1440  1.9132  -0.3452
H  -1.0274  2.6939  -0.5618
H  -1.9682  2.0963  0.8159
H  -2.4195  1.5684  -0.8564
H  -2.7386  -1.4740  1.2301
H  -3.1033  -0.0044  0.2481
H  -2.7797  -1.6281  -0.5780
H  -0.5236  -2.6290  0.4049
H  1.9394  -2.2177  0.2155
*