! b97-3c opt
%maxcore 5000
* xyz 0 1
C  -3.1231  -0.0140  0.9389
C  -2.3280  -0.2462  -0.2922
C  -3.1977  -0.6719  -1.4391
C  -1.5437  1.0275  -0.6112
C  -0.3985  0.9447  0.2814
C  -0.2898  -0.4529  0.8469
C  -1.1721  -1.2339  -0.0721
C  1.1407  -0.8244  0.8504
C  1.5319  -1.6096  2.0879
C  1.6274  -1.5530  -0.3531
C  1.9566  -0.6983  -1.5298
C  1.3288  0.6560  -1.5359
C  0.9501  1.2205  -0.2353
C  1.2429  2.7163  -0.1292
C  1.8197  0.5542  0.8434
O  3.1386  0.4966  0.5023
H  -2.7309  -0.4762  1.8532
H  -4.1909  -0.3503  0.8398
H  -3.2017  1.0883  1.1599
H  -3.8873  -1.4470  -1.0701
H  -3.8110  0.1940  -1.7395
H  -2.6145  -0.9806  -2.3202
H  -2.2125  1.8955  -0.3416
H  -1.3985  1.0642  -1.6775
H  -0.5684  1.6172  1.1740
H  -0.6921  -0.5407  1.8701
H  -1.5700  -2.1032  0.4577
H  -0.7646  -1.4228  -1.0647
H  1.0019  -1.2867  2.9876
H  1.2469  -2.6779  1.8667
H  2.6385  -1.6198  2.1939
H  2.5864  -2.0693  -0.0425
H  0.9549  -2.4227  -0.6176
H  1.6266  -1.2830  -2.4432
H  3.0746  -0.6179  -1.6917
H  0.4948  0.6546  -2.2982
H  2.0761  1.3746  -1.9958
H  1.1134  3.0276  0.9439
H  0.5873  3.2641  -0.8078
H  2.2981  2.8660  -0.4476
H  1.5913  1.0779  1.7821
H  3.6677  0.8626  1.2756
*