! b97-3c opt
%maxcore 5000
* xyz 0 1
C  1.4513  -0.1042  -0.0868
S  -0.0286  0.8984  0.0339
C  -1.4311  -0.1917  -0.1278
O  -0.0675  1.7737  1.2395
H  2.3777  0.5045  -0.1349
H  1.5239  -0.8461  0.7249
H  1.3562  -0.6979  -1.0373
H  -1.9923  -0.2975  0.8053
H  -1.1397  -1.2301  -0.4379
H  -2.0499  0.1909  -0.9790
*