! b97-3c opt
%maxcore 5000
* xyz 0 1
C  -2.2296  -0.2034  0.0004
C  -0.7441  -0.3490  0.0026
C  0.0716  0.7756  0.0075
O  -0.5712  2.0009  0.0103
C  1.4489  0.6960  0.0097
O  2.1430  1.7462  0.0142
C  2.0087  -0.5648  0.0067
C  1.1520  -1.6460  0.0017
O  -0.1547  -1.5221  -0.0001
H  -2.6654  -1.0810  -0.5192
H  -2.5541  0.6866  -0.5841
H  -2.6187  -0.0695  1.0287
H  -0.0174  2.8468  0.0139
H  3.0949  -0.6827  0.0082
H  1.6361  -2.6335  -0.0005
*