! b97-3c opt
%maxcore 5000
* xyz 0 1
O  3.2329  0.9899  0.7487
C  1.9919  0.4115  0.4898
C  2.1263  -0.7895  -0.3987
C  0.7225  -1.4014  -0.4035
C  -0.2168  -0.4785  -1.1015
C  -1.6230  -1.0578  -0.8876
C  -1.9836  -1.0817  0.5703
C  -1.6206  0.2777  1.1451
C  -1.4115  1.2909  0.0608
C  -0.1465  0.9412  -0.7397
C  1.0206  1.4342  -0.0038
H  3.1648  1.4526  1.6121
H  1.6284  0.0280  1.4842
H  2.4769  -0.5584  -1.4128
H  2.7730  -1.5220  0.1313
H  0.7051  -2.3853  -0.8758
H  0.4470  -1.5231  0.6763
H  -0.0314  -0.6218  -2.2083
H  -2.3851  -0.4609  -1.4166
H  -1.6407  -2.0730  -1.3551
H  -1.5107  -1.9132  1.1253
H  -3.0871  -1.2553  0.6212
H  -0.7414  0.2369  1.7945
H  -2.4738  0.6039  1.7736
H  -1.2339  2.2720  0.5515
H  -2.2792  1.4139  -0.5952
H  -0.2567  1.5575  -1.6829
H  0.7268  2.0381  0.9073
H  1.6257  2.1737  -0.6106
*