! b97-3c opt
%maxcore 5000
* xyz 0 1
C  2.8887  0.3917  1.6916
C  2.0838  0.4661  0.4657
C  2.4646  1.0415  -0.6580
C  1.5001  1.0073  -1.7838
O  1.7479  1.4884  -2.8960
C  0.1979  0.3369  -1.4510
C  -0.1997  0.8867  -0.1162
C  0.7172  -0.1593  0.4928
C  0.5688  -0.9558  -0.7580
C  1.8566  -1.5892  -1.2427
C  -0.5136  -1.9913  -0.7110
C  -1.5994  -1.7235  0.2710
C  -2.3223  -0.4567  -0.1118
C  -1.6017  0.7711  0.3227
C  -2.3851  1.9733  -0.1657
C  -1.6188  0.8316  1.8565
H  2.7820  -0.6564  2.0892
H  3.9654  0.5449  1.5306
H  2.4619  1.0452  2.4807
H  3.4030  1.5242  -0.8170
H  -0.5353  0.2924  -2.2379
H  0.1686  1.9406  0.0504
H  0.4143  -0.5899  1.4348
H  2.6091  -1.6138  -0.4341
H  1.7139  -2.6764  -1.5181
H  2.2304  -1.1315  -2.1883
H  -0.0313  -2.9634  -0.4182
H  -0.9618  -2.1767  -1.7050
H  -1.2581  -1.7491  1.3083
H  -2.3457  -2.5518  0.1651
H  -2.3680  -0.4419  -1.2325
H  -3.3521  -0.4291  0.2805
H  -3.3581  1.9510  0.4063
H  -2.5810  1.8753  -1.2354
H  -1.8368  2.9231  0.0588
H  -0.6119  1.0606  2.2615
H  -2.2941  1.6249  2.2255
H  -1.9994  -0.1210  2.2886
*