! b97-3c opt
%maxcore 5000
* xyz 0 1
C  0.8550  -0.8348  -0.0199
O  -0.3290  -1.0246  -0.7772
C  -1.1722  -0.1517  -0.0972
C  -0.3454  1.0754  0.0118
C  0.9151  0.6615  0.0609
H  0.6510  -1.2265  0.9720
H  1.7191  -1.2526  -0.5406
H  -1.3785  -0.5674  0.9064
H  -2.0847  -0.0130  -0.7045
H  -0.6686  2.1094  0.0468
H  1.8383  1.2242  0.1416
*