! b97-3c opt
%maxcore 5000
* xyz 0 1
C  -2.3937  0.7821  -0.1112
C  -1.2013  -0.0772  0.0671
C  -1.4082  -1.3913  0.4222
C  -0.3165  -2.2130  0.5946
C  0.9576  -1.7112  0.4103
C  1.1897  -0.4062  0.0565
C  2.5324  0.0884  -0.1287
C  0.0997  0.4069  -0.1137
C  0.2525  1.8072  -0.4895
H  -3.1377  0.6341  0.7023
H  -2.9041  0.4639  -1.0462
H  -2.1029  1.8483  -0.1240
H  -2.3830  -1.8251  0.5764
H  -0.4511  -3.2454  0.8725
H  1.7940  -2.3691  0.5499
H  2.7489  1.0850  0.2943
H  2.7607  0.0914  -1.2347
H  3.2653  -0.6252  0.3459
H  1.2716  2.1509  -0.6259
H  -0.1781  2.4255  0.3531
H  -0.3958  2.0799  -1.3713
*