! b97-3c opt
%maxcore 5000
* xyz 0 1
C  -2.5208  -0.1228  -0.1889
C  -1.1025  -0.5661  -0.1397
C  -0.7200  -1.8983  -0.2553
C  0.6160  -2.2774  -0.2049
C  1.5868  -1.2918  -0.0343
C  1.2322  0.0326  0.0823
C  2.2511  1.0461  0.2592
C  -0.0961  0.3806  0.0291
C  -0.4721  1.7792  0.1522
H  -2.7823  0.1616  0.8715
H  -3.1671  -0.9464  -0.5051
H  -2.6539  0.8085  -0.7737
H  -1.4842  -2.6501  -0.3871
H  0.8436  -3.3279  -0.3011
H  2.6191  -1.6040  0.0026
H  2.0308  2.0408  -0.1223
H  2.4311  1.1701  1.3686
H  3.2159  0.7239  -0.2234
H  -1.5073  1.9117  0.5545
H  -0.5217  2.2098  -0.8912
H  0.2013  2.4199  0.7068
*