! b97-3c opt
%maxcore 5000
* xyz 0 1
C  2.9092  0.1018  -0.0085
C  1.4190  0.0536  -0.0067
C  0.6684  0.7490  0.9205
C  -0.7102  0.6971  0.9127
C  -1.4156  -0.0437  -0.0106
C  -2.9113  -0.0909  -0.0074
C  -0.6680  -0.7389  -0.9374
C  0.7107  -0.6877  -0.9306
H  3.3477  -0.8446  -0.4119
H  3.3080  0.9182  -0.6234
H  3.3168  0.1877  1.0339
H  1.2159  1.3367  1.6535
H  -1.3012  1.2496  1.6493
H  -3.3049  -0.1065  1.0466
H  -3.3577  0.8049  -0.4763
H  -3.2858  -1.0230  -0.4718
H  -1.2299  -1.3227  -1.6649
H  1.2889  -1.2405  -1.6670
*