! b97-3c opt
%maxcore 5000
* xyz 0 1
C  2.4622  -0.9726  -0.2277
C  1.2041  -0.1895  -0.0904
C  1.2146  1.1817  0.0269
C  0.0482  1.9255  0.1557
C  -1.1763  1.3017  0.1700
C  -1.1913  -0.0737  0.0526
C  -2.5210  -0.7708  0.0665
C  -0.0268  -0.8142  -0.0758
H  3.3002  -0.2606  -0.4038
H  2.4089  -1.7388  -1.0083
H  2.7260  -1.4904  0.7362
H  2.1868  1.6608  0.0141
H  0.0850  3.0124  0.2471
H  -2.1216  1.8288  0.2679
H  -3.1982  -0.2318  0.7742
H  -2.4280  -1.8213  0.3982
H  -2.9426  -0.6559  -0.9351
H  -0.0304  -1.8915  -0.1682
*