! b97-3c opt
%maxcore 5000
* xyz 0 1
C  -1.7368  0.2284  0.5338
C  -0.4880  0.8231  -0.1321
O  0.5169  1.0209  0.7732
C  1.5685  0.1927  0.4839
C  0.9766  -0.9972  -0.2862
C  -0.0364  -0.2246  -1.0953
O  -0.4051  -0.3847  -2.2205
H  -1.4674  -0.6356  1.1510
H  -2.3271  0.9917  1.0392
H  -2.3781  -0.1542  -0.3108
H  -0.7543  1.7656  -0.6311
H  2.1106  -0.1442  1.3856
H  2.2964  0.6622  -0.2189
H  1.7066  -1.5076  -0.8976
H  0.4175  -1.6365  0.4260
*