! b97-3c opt
%maxcore 5000
* xyz 0 1
C  -2.1851  -2.4751  1.0875
C  -1.4626  -1.8951  -0.1092
C  -2.4051  -1.3236  -1.1180
C  -2.7117  0.0271  -0.4489
C  -1.3840  0.3681  0.1547
C  -0.6691  -0.7307  0.3488
C  0.7032  -0.9010  0.9193
C  1.6511  0.1052  0.3669
C  1.4723  1.5870  0.4912
C  0.2733  2.0551  -0.3218
C  -0.9504  1.7545  0.4827
C  -2.0192  2.7656  0.2053
C  2.7304  -0.3201  -0.2806
C  3.7099  0.6472  -0.8524
C  2.9820  -1.7779  -0.4469
H  -1.3922  -2.8983  1.7618
H  -2.6961  -1.6558  1.6246
H  -2.8668  -3.2799  0.8032
H  -0.7493  -2.6285  -0.5383
H  -3.3107  -1.9270  -1.2482
H  -1.8589  -1.1434  -2.0658
H  -3.4967  -0.1108  0.3138
H  -3.0337  0.7409  -1.2061
H  0.6773  -0.7841  2.0271
H  1.0855  -1.9012  0.6318
H  1.2583  1.8554  1.5474
H  2.3344  2.1592  0.1575
H  0.4068  3.1557  -0.5204
H  0.2903  1.4973  -1.2794
H  -0.7220  1.7693  1.5717
H  -1.5721  3.7721  0.3464
H  -2.3575  2.6801  -0.8525
H  -2.8605  2.6897  0.9159
H  4.4395  0.1157  -1.4817
H  4.2378  1.1233  -0.0063
H  3.2125  1.3913  -1.5149
H  2.2011  -2.2727  -1.0581
H  3.0924  -2.2798  0.5549
H  3.9457  -1.9546  -0.9631
*