! b97-3c opt
%maxcore 5000
* xyz 0 1
C  2.0624  -0.0615  0.0440
C  0.5593  -0.1931  -0.0057
C  -0.3737  0.8004  0.0634
C  -1.6625  0.4446  -0.0018
C  -1.9421  -0.8879  -0.1327
S  -0.3906  -1.5986  -0.1602
H  2.3033  0.9954  0.1176
H  2.4528  -0.6101  0.9332
H  2.4671  -0.5469  -0.8704
H  -0.0392  1.8552  0.1699
H  -2.5010  1.1671  0.0445
H  -2.9357  -1.3646  -0.2019
*