! b97-3c opt
%maxcore 5000
* xyz 0 1
C  -1.7926  -2.1304  -0.7692
C  -1.1941  -0.8802  -0.2746
C  -1.6631  -0.1991  0.7800
C  -0.9589  1.0448  1.1646
O  -1.8498  2.1041  0.8668
C  0.2699  1.2625  0.3523
C  -0.1506  1.2048  -1.1249
C  -0.0083  -0.3164  -0.9563
C  1.0641  0.0362  0.0679
C  1.3043  -0.9347  1.1430
C  2.3597  0.4093  -0.6501
H  -1.0137  -2.8089  -1.1990
H  -2.6229  -1.9936  -1.4689
H  -2.2005  -2.6722  0.1214
H  -2.5224  -0.5355  1.3367
H  -0.7469  1.1194  2.2320
H  -1.3865  2.9622  0.8182
H  0.8508  2.1385  0.6273
H  0.6388  1.5664  -1.7920
H  -1.1654  1.5471  -1.3022
H  0.3650  -0.8416  -1.8321
H  1.5716  -0.4385  2.1049
H  0.5095  -1.6556  1.3518
H  2.2107  -1.5505  0.8684
H  2.3520  0.1140  -1.6998
H  2.5401  1.5093  -0.6100
H  3.2391  -0.0614  -0.1562
*