! b97-3c opt
%maxcore 5000
* xyz 0 1
C  1.7712  -0.8226  -0.1244
C  0.4802  -0.1738  -0.4957
O  -0.5069  -1.0384  -0.8985
C  -1.7225  -0.5652  -0.4578
C  -1.4866  0.6406  0.3541
O  -2.2847  1.4818  0.6476
C  -0.0621  0.5753  0.7175
O  0.5405  1.7882  0.9101
H  2.0019  -0.6754  0.9516
H  2.6398  -0.3942  -0.6778
H  1.7627  -1.8960  -0.3165
H  0.5967  0.5933  -1.3125
H  -2.1564  -1.3383  0.2434
H  -2.4585  -0.4057  -1.2668
H  0.1320  -0.0676  1.6107
H  0.7528  2.2979  0.1150
*