! b97-3c opt
%maxcore 5000
* xyz 0 1
C  -1.8755  0.1364  0.1034
O  -0.5294  0.5188  0.2383
C  0.4761  -0.3593  -0.1643
C  1.8597  0.1522  0.0256
O  0.2282  -1.4936  -0.6494
H  -2.4520  0.7245  0.8635
H  -2.1893  0.4062  -0.9252
H  -2.0153  -0.9541  0.2561
H  2.5513  -0.6063  -0.3476
H  1.9690  1.1246  -0.5067
H  1.9771  0.3505  1.1061
*