! b97-3c opt
%maxcore 5000
* xyz 0 1
C  -1.8895  -0.2575  0.0903
O  -0.5338  -0.5266  0.3485
C  0.4612  0.2790  -0.1843
C  1.8968  -0.0004  0.0851
O  0.1069  1.2510  -0.9010
H  -2.4485  -1.2005  -0.0508
H  -2.0306  0.3342  -0.8499
H  -2.3945  0.2944  0.9086
H  2.5094  0.8984  -0.1603
H  2.2616  -0.8990  -0.4713
H  2.0609  -0.1731  1.1850
*