! b97-3c opt
%maxcore 5000
* xyz 0 1
C  -2.4918  0.4646  -1.4231
C  -1.1742  0.4908  -0.6361
C  -0.7362  1.9141  -0.6017
C  0.7653  2.0657  -0.6457
C  1.3197  1.4578  0.5948
C  1.6168  0.0143  0.5365
C  1.9175  -0.4363  1.9777
C  2.9574  -0.1529  -0.1968
C  0.6533  -0.8898  -0.0340
C  -0.5314  -1.2812  0.8492
C  -1.1346  -2.3566  -0.0524
C  -0.9321  -1.7696  -1.4445
C  -0.1601  -0.4560  -1.2170
C  -1.3852  -0.0953  0.7297
C  -2.2146  0.4113  1.6367
H  -2.9905  1.4687  -1.3686
H  -2.2977  0.2942  -2.5051
H  -3.2083  -0.2536  -0.9886
H  -1.0582  2.3341  0.3960
H  -1.2492  2.5582  -1.3537
H  0.9688  3.1660  -0.6232
H  1.2342  1.6510  -1.5350
H  0.6719  1.6593  1.4893
H  2.2830  1.9971  0.8384
H  2.1545  -1.5064  2.0073
H  2.8768  0.0957  2.2351
H  1.0899  -0.1222  2.6154
H  3.4767  -1.0577  0.1764
H  2.7934  -0.1811  -1.2939
H  3.5679  0.7268  0.0768
H  1.1508  -1.8552  -0.3267
H  -0.2692  -1.6109  1.8287
H  -2.1847  -2.5522  0.1717
H  -0.4705  -3.2412  0.0564
H  -0.3443  -2.4587  -2.0742
H  -1.9125  -1.6095  -1.8814
H  0.3767  -0.1180  -2.0780
H  -2.8083  1.2954  1.4581
H  -2.3212  -0.0605  2.6055
*