! b97-3c opt
%maxcore 5000
* xyz 0 1
C  -2.9796  -0.3923  0.7667
C  -1.9829  0.1517  -0.1824
C  -1.9846  1.6698  -0.2686
O  -0.6761  2.0657  -0.5306
C  0.0836  0.9564  -0.7396
C  1.4980  1.0470  -0.3751
C  2.1184  -0.0698  -0.0076
C  3.5588  0.0245  0.3632
C  1.4813  -1.4093  0.0607
C  -0.0093  -1.3954  0.0989
C  -0.5454  -0.0291  0.2612
H  -2.4870  -0.6139  1.7378
H  -3.3229  -1.3929  0.3751
H  -3.8726  0.2243  0.9177
H  -2.0785  -0.2187  -1.2164
H  -2.2162  2.0269  0.7753
H  -2.7161  2.0610  -0.9764
H  -0.0907  0.5969  -1.7740
H  2.0020  2.0045  -0.4113
H  4.1561  -0.2011  -0.5592
H  3.8207  1.0550  0.6987
H  3.7971  -0.7548  1.0905
H  1.8070  -2.0560  -0.8040
H  1.9111  -1.9083  0.9766
H  -0.3704  -2.0118  0.9547
H  -0.4721  -1.8462  -0.8158
H  -0.4298  0.4155  1.2660
*