! b97-3c opt
%maxcore 5000
* xyz 0 1
C  -2.8914  -0.7335  0.0693
C  -1.3977  -0.7630  0.0191
C  -0.6923  0.4220  0.0405
C  -1.4586  1.6907  0.1128
C  0.6885  0.4630  -0.0031
C  1.4347  1.7504  0.0210
C  1.4236  -0.7048  -0.0710
C  2.9141  -0.6807  -0.1188
C  0.7117  -1.8870  -0.0921
C  -0.6691  -1.9218  -0.0482
H  -3.3391  -0.3905  -0.8777
H  -3.3080  -1.7403  0.2803
H  -3.2142  -0.0892  0.9121
H  -1.3430  2.2145  1.0700
H  -1.0719  2.3454  -0.7224
H  -2.5229  1.5205  -0.1312
H  2.1926  1.7865  0.8328
H  0.7002  2.5531  0.2652
H  1.8714  1.9603  -0.9776
H  3.3451  0.1409  0.4828
H  3.2369  -0.6512  -1.1726
H  3.3451  -1.6230  0.3187
H  1.2777  -2.8029  -0.1450
H  -1.2335  -2.8594  -0.0650
*