! b97-3c opt
%maxcore 5000
* xyz 0 1
C  0.7592  2.1286  1.0760
C  1.3484  0.9973  0.3342
C  2.0899  -0.0267  1.2034
C  3.0697  -0.7048  0.2774
C  2.4143  -1.3129  -0.9112
C  0.9342  -1.0994  -0.8856
C  0.0997  -2.0730  -1.1434
C  -1.3731  -1.7801  -1.0906
C  -1.4782  -0.9997  0.1815
C  -1.0375  0.3992  -0.3516
C  -2.0798  0.1959  0.5851
C  -2.0961  0.5170  2.0751
C  -3.5517  0.3431  0.1174
C  0.3740  0.2636  -0.5830
C  0.7475  0.9313  -1.9637
H  0.6626  1.9453  2.1711
H  1.4083  3.0641  1.0458
H  -0.1847  2.4932  0.6216
H  2.2146  1.4447  -0.2514
H  1.3942  -0.7766  1.6195
H  2.5935  0.5305  1.9921
H  3.8219  0.0445  -0.0644
H  3.5885  -1.4843  0.9106
H  2.6732  -2.3886  -0.9370
H  2.8054  -0.8696  -1.8409
H  0.4794  -3.0537  -1.3856
H  -1.9662  -2.7184  -1.0857
H  -1.6234  -1.2226  -2.0114
H  -0.8156  -1.4644  0.9756
H  -1.5398  0.6996  -1.3534
H  -2.9105  -0.1102  2.5385
H  -1.1784  0.1770  2.5891
H  -2.3621  1.5602  2.2322
H  -3.9801  1.2805  0.5043
H  -3.5516  0.3605  -0.9989
H  -4.0765  -0.5294  0.5268
H  1.8302  1.0240  -2.0388
H  0.2830  0.3150  -2.7593
H  0.2137  1.8990  -1.9212
*