! b97-3c opt
%maxcore 5000
* xyz 0 1
C  1.9408  2.1710  -0.6747
C  0.9430  1.3965  0.1424
C  1.6089  1.0179  1.4372
C  2.6173  -0.0785  1.3082
C  2.2194  -1.1917  0.3929
C  0.8423  -1.0807  -0.1316
C  0.0700  -2.1454  -0.1749
C  -1.3051  -2.1661  -0.6695
C  -1.9088  -0.8524  -0.9471
C  -1.1270  0.3463  -0.7184
C  -2.1207  0.0574  0.2878
C  -3.4474  0.8390  0.2204
C  -1.9321  -0.5839  1.5991
C  0.3566  0.2062  -0.5994
C  0.9072  0.3296  -2.0376
H  1.5851  2.4109  -1.6956
H  2.1038  3.1461  -0.1708
H  2.9357  1.6631  -0.6816
H  0.1251  2.1226  0.4157
H  2.1802  1.9278  1.7717
H  0.8595  0.7355  2.1890
H  2.7646  -0.5033  2.3451
H  3.6226  0.2909  1.0133
H  2.3599  -2.1851  0.8667
H  2.8828  -1.2044  -0.5245
H  0.4889  -3.0918  0.1880
H  -1.3627  -2.8326  -1.5553
H  -1.9321  -2.6804  0.1150
H  -2.7371  -0.8769  -1.7078
H  -1.3691  1.2125  -1.4128
H  -4.2223  0.0942  -0.0539
H  -3.3889  1.6451  -0.5413
H  -3.7010  1.2365  1.2016
H  -2.5944  -1.4951  1.6604
H  -0.9337  -0.8316  1.9164
H  -2.3484  0.0978  2.3986
H  1.9895  0.4432  -2.0473
H  0.6946  -0.6619  -2.5370
H  0.3330  1.0715  -2.5887
*