! b97-3c opt
%maxcore 5000
* xyz 0 1
C  3.3859  -0.5700  0.5002
C  2.6362  0.1970  -0.5744
C  1.7686  1.2138  0.1098
C  0.4760  0.5057  0.3326
C  -0.7450  1.3337  0.1118
C  -0.5066  2.5095  -0.8008
C  -1.2294  1.8645  1.4232
C  -1.6864  0.3668  -0.5531
C  -0.7470  -0.2663  -1.5808
C  0.4090  -0.6464  -0.6443
C  1.7151  -0.7189  -1.3565
C  -0.0017  -1.9276  0.0274
C  -1.5060  -2.0934  0.0674
O  -1.7778  -2.9600  1.1353
C  -2.1108  -0.7494  0.3333
C  -2.9700  -0.6270  1.3134
H  2.6179  -0.8286  1.2833
H  3.8930  -1.4656  0.1139
H  4.0843  0.1495  0.9694
H  3.3216  0.7507  -1.2519
H  2.1995  1.4424  1.1293
H  1.7035  2.1716  -0.4061
H  0.3943  0.0574  1.3504
H  0.0104  3.2901  -0.1984
H  0.1100  2.2929  -1.6710
H  -1.4618  2.9285  -1.1602
H  -1.1873  1.1332  2.2527
H  -0.4954  2.6723  1.7185
H  -2.2020  2.3920  1.3466
H  -2.5452  0.8614  -1.0409
H  -0.4279  0.4482  -2.3508
H  -1.1817  -1.1300  -2.0784
H  2.0863  -1.7654  -1.3057
H  1.6483  -0.4246  -2.4236
H  0.4267  -2.0236  1.0434
H  0.3814  -2.7876  -0.5905
H  -1.9024  -2.5728  -0.8321
H  -1.9341  -3.8836  0.8279
H  -3.2343  -1.4709  1.9165
H  -3.4150  0.3306  1.5134
*