! b97-3c opt
%maxcore 5000
* xyz 0 1
C  -0.7075  -1.7982  0.6171
C  -0.8077  -0.3864  0.1899
C  -2.1753  0.1759  0.4052
C  -0.3039  -0.1407  -1.2294
C  -0.3403  1.3812  -1.2520
C  0.1165  1.7538  0.1673
C  0.2783  0.4523  0.8792
C  1.4989  -0.2153  0.3185
C  2.6345  -0.4855  0.8968
C  1.1439  -0.5240  -1.0945
H  -0.0162  -1.8722  1.5066
H  -0.2844  -2.4919  -0.1368
H  -1.6997  -2.1654  0.9750
H  -2.8447  -0.2760  -0.3651
H  -2.5085  -0.1212  1.4145
H  -2.2460  1.2598  0.2833
H  -0.8621  -0.6236  -1.9979
H  -1.3298  1.7771  -1.4739
H  0.3893  1.7015  -2.0081
H  1.0799  2.2985  0.1176
H  -0.5976  2.3936  0.6792
H  0.2151  0.4589  1.9452
H  3.4206  -0.9760  0.3459
H  2.8249  -0.2315  1.9321
H  1.7469  0.1972  -1.7188
H  1.3749  -1.5418  -1.3970
*