! b97-3c opt
%maxcore 5000
* xyz 0 1
C  -2.4925  0.1252  -0.0384
C  -0.9974  0.0406  -0.0490
C  -0.3326  -1.1511  0.1464
C  1.0452  -1.2151  0.1342
C  1.8361  -0.1046  -0.0717
O  3.2317  -0.1823  -0.0818
C  1.1693  1.0862  -0.2669
C  -0.2086  1.1528  -0.2552
H  -2.8258  1.0844  0.4411
H  -2.9158  0.0490  -1.0632
H  -2.9370  -0.6783  0.5836
H  -0.9506  -2.0444  0.3118
H  1.5490  -2.1651  0.2905
H  3.7618  -0.0645  0.7596
H  1.7860  1.9658  -0.4299
H  -0.7189  2.1016  -0.4111
*