! b97-3c opt
%maxcore 5000
* xyz 0 1
C  2.4772  -0.0164  -0.1202
C  0.9872  -0.0237  -0.0592
C  0.2743  1.0468  0.4404
C  -1.1042  1.0052  0.4815
C  -1.8343  -0.0789  0.0379
O  -3.2259  -0.0971  0.0899
C  -1.1164  -1.1461  -0.4605
C  0.2625  -1.1110  -0.5045
H  2.8662  0.2277  -1.1131
H  2.8986  0.6973  0.6278
H  2.8983  -1.0213  0.1536
H  0.8451  1.8964  0.7881
H  -1.6553  1.8612  0.8803
H  -3.6913  0.7172  0.4667
H  -1.6972  -2.0059  -0.8122
H  0.8152  -1.9514  -0.8964
*