! b97-3c opt
%maxcore 5000
* xyz 0 1
C  1.8896  -0.1231  -1.6233
C  1.3857  -0.0419  -0.2293
O  2.4141  -0.5282  0.6010
C  1.1107  1.3931  0.2192
C  -0.3028  1.3948  0.7762
C  -0.3018  0.6262  2.0623
C  0.0477  -0.7887  1.5958
C  0.0996  -0.7050  0.0712
C  -0.1897  -1.9812  -0.5907
C  -0.9667  0.3567  -0.1433
C  -2.3027  -0.0553  0.4385
C  -1.1582  0.8108  -1.5126
H  1.7425  0.8822  -2.1126
H  3.0077  -0.2840  -1.6764
H  1.4448  -0.8820  -2.2566
H  3.0508  -1.0809  0.1196
H  1.2394  2.1099  -0.6033
H  1.7629  1.6980  1.0571
H  -0.7880  2.3437  0.7770
H  0.4576  1.0462  2.7285
H  -1.2653  0.6551  2.5938
H  -0.6366  -1.5419  1.9636
H  1.0476  -1.0121  2.0226
H  0.4933  -2.7665  -0.2835
H  -0.2658  -1.8300  -1.6773
H  -1.2165  -2.3112  -0.2648
H  -2.6906  0.7436  1.1367
H  -2.3031  -1.0388  0.9012
H  -3.0903  -0.0954  -0.3721
H  -2.2450  0.8677  -1.7974
H  -0.6674  0.2579  -2.3201
H  -0.8035  1.8802  -1.6013
*