! b97-3c opt
%maxcore 5000
* xyz 0 1
O  2.4881  0.8779  0.0482
C  1.3685  0.5058  -0.2118
C  1.1274  -0.9466  -0.3534
C  0.0078  -1.2738  0.6382
C  -1.2077  -0.5783  0.1070
C  -1.0453  0.9063  0.2212
C  0.2251  1.4220  -0.3965
H  2.0290  -1.5458  -0.1598
H  0.7333  -1.1060  -1.3916
H  0.2762  -0.7736  1.6026
H  -0.0890  -2.3584  0.7255
H  -1.2839  -0.8384  -0.9880
H  -2.1311  -0.8608  0.6354
H  -1.9135  1.3710  -0.3121
H  -1.1488  1.2055  1.2854
H  0.0721  1.5835  -1.4992
H  0.4919  2.4096  0.0490
*