! b97-3c opt
%maxcore 5000
* xyz 0 1
O  -3.4568  -1.6380  -0.0469
C  -2.3872  -0.9511  -0.0231
O  -1.2015  -1.5115  -0.0651
C  -0.0879  -0.8098  -0.0410
C  1.1455  -1.4441  -0.0873
C  2.3239  -0.7363  -0.0636
C  2.3383  0.6412  0.0076
C  1.1126  1.2735  0.0538
C  -0.0785  0.5669  0.0302
C  -1.3087  1.2028  0.0766
C  -2.4481  0.4249  0.0488
H  1.1522  -2.5390  -0.1441
H  3.2879  -1.2293  -0.0997
H  3.2603  1.2124  0.0271
H  1.1032  2.3596  0.1101
H  -1.3268  2.2840  0.1328
H  -3.4283  0.8938  0.0838
*