! b97-3c opt
%maxcore 5000
* xyz 0 1
C  2.7487  -0.6750  -0.0764
C  1.4632  0.0455  0.0957
C  1.2921  0.8475  1.1268
C  0.0068  1.5072  1.2125
O  -0.2859  2.3376  2.0914
C  -0.9902  1.1471  0.1774
C  -0.2370  1.2972  -1.1542
C  0.3278  -0.0928  -0.8597
C  -0.9705  -0.3491  -0.1063
C  -2.1155  -0.7138  -0.9884
C  -0.8438  -1.2227  1.0968
H  2.9744  -0.7636  -1.1708
H  3.5939  -0.1148  0.3681
H  2.7249  -1.6633  0.4246
H  2.0789  0.9747  1.8328
H  -1.9612  1.6220  0.2216
H  -0.9440  1.3375  -1.9813
H  0.5142  2.0966  -1.1600
H  0.5090  -0.7218  -1.7255
H  -2.9960  -0.0925  -0.6875
H  -2.4443  -1.7674  -0.8868
H  -1.9503  -0.5207  -2.0571
H  -1.2603  -0.7748  2.0260
H  0.2069  -1.5961  1.2634
H  -1.4416  -2.1445  0.9169
*