! b97-3c opt
%maxcore 5000
* xyz 0 1
C  -2.7264  0.3470  -0.0331
C  -1.7657  1.3316  -0.0233
C  -0.5112  0.8000  -0.0036
C  0.6848  1.4936  0.0107
C  1.9768  1.0279  0.0544
C  2.4100  -0.2869  -0.0084
C  1.6661  -1.4697  0.0029
C  0.2974  -1.6131  0.0170
C  -0.6963  -0.6653  -0.0006
C  -2.0557  -0.8569  -0.0191
H  -3.8208  0.4818  -0.0490
H  -1.9852  2.3939  -0.0304
H  0.6108  2.5686  -0.0162
H  2.7863  1.7672  0.1506
H  3.4798  -0.4417  -0.0768
H  2.2411  -2.3969  0.0002
H  -0.0545  -2.6346  0.0466
H  -2.5372  -1.8463  -0.0221
*