! b97-3c opt
%maxcore 5000
* xyz 0 1
C  -2.7357  -0.0539  -0.1126
C  -1.8700  -1.1218  -0.2557
C  -0.5698  -0.7130  -0.2186
C  0.5636  -1.5022  -0.3297
C  1.8708  -1.2272  0.0139
C  2.3663  -0.0164  0.4542
C  1.7980  1.2489  0.2819
C  0.4677  1.5984  0.0598
C  -0.6079  0.7355  -0.0367
C  -1.9381  1.0650  0.0190
H  -3.8371  -0.0742  -0.1032
H  -2.1748  -2.1536  -0.3817
H  0.3774  -2.4822  -0.7531
H  2.6027  -2.0193  -0.0588
H  3.3047  -0.0448  0.9970
H  2.4805  2.0564  0.3275
H  0.2176  2.6340  -0.0523
H  -2.3162  2.0702  0.1491
*