! b97-3c opt
%maxcore 5000
* xyz 0 1
C  2.6937  -0.4317  0.7421
C  1.4502  0.1200  0.2027
C  1.2055  1.4105  0.1882
C  -0.1115  1.8878  -0.3913
C  -0.8007  0.7041  -0.9838
C  0.1074  -0.2304  -1.7081
O  0.5027  -0.5242  -2.7995
C  0.4362  -0.8057  -0.3442
C  -0.9733  -0.4055  0.0289
C  -1.9529  -1.4305  -0.4631
C  -1.2122  -0.0067  1.4308
H  3.3094  0.3666  1.2362
H  3.3478  -0.8036  -0.1004
H  2.5442  -1.2875  1.4322
H  1.8647  2.1839  0.5567
H  -0.7048  2.3161  0.4183
H  0.0575  2.6341  -1.1737
H  -1.7508  0.9204  -1.5072
H  0.6653  -1.8679  -0.3409
H  -1.5295  -2.0344  -1.2922
H  -2.3838  -2.0503  0.3507
H  -2.8169  -0.8667  -0.9150
H  -1.7298  -0.8593  1.9520
H  -1.9052  0.8587  1.4478
H  -0.3133  0.2022  2.0328
*