! b97-3c opt
%maxcore 5000
* xyz 0 1
C  -3.2418  -0.1707  0.4519
C  -1.7464  -0.0349  0.3399
C  -1.0617  -1.3794  0.2093
C  0.4111  -1.1600  0.5087
C  0.9084  0.0883  -0.1242
C  0.1151  0.9909  -0.7710
C  -1.3366  0.7661  -0.8801
O  0.8578  1.9664  -1.2078
C  2.1151  1.7872  -0.8991
C  2.1815  0.5951  -0.2057
C  3.4282  0.0096  0.3338
H  -3.7974  0.4922  -0.2239
H  -3.5257  0.0249  1.5057
H  -3.4794  -1.2553  0.2647
H  -1.3063  0.4720  1.2209
H  -1.5386  -2.0423  0.9642
H  -1.1429  -1.7937  -0.8232
H  0.5012  -1.1366  1.6153
H  1.0354  -2.0253  0.1735
H  -1.5141  0.1283  -1.7901
H  -1.9246  1.6892  -1.0072
H  2.8924  2.4858  -1.1717
H  4.1850  -0.2057  -0.4324
H  3.1749  -0.9629  0.8168
H  3.8093  0.6708  1.1318
*