! b97-3c opt
%maxcore 5000
* xyz 0 1
C  3.3672  0.5301  -0.5539
C  2.4484  -0.4555  0.0615
C  2.7526  -1.8973  0.0450
C  1.3198  -0.0130  0.6428
C  1.0098  1.4531  0.6600
C  0.3409  1.9511  -0.5889
C  -1.0847  2.3275  -0.4458
C  -1.3682  3.7495  -0.1093
C  -2.1307  1.5124  -0.5849
C  -1.9925  0.0400  -0.9192
C  -2.2941  -0.8845  0.1865
C  -1.4205  -2.0770  0.3434
C  -1.9337  -3.4512  -0.0955
C  -0.1832  -2.0971  0.8399
C  0.3676  -0.8445  1.2672
H  4.1920  -0.0274  -1.0755
H  2.8926  1.1794  -1.2990
H  3.7879  1.1450  0.2802
H  2.1185  -2.4835  -0.6347
H  3.8045  -2.0508  -0.2707
H  2.6471  -2.3243  1.0605
H  0.4000  1.7437  1.5338
H  1.9917  1.9804  0.7587
H  0.8789  2.8751  -0.8774
H  0.5108  1.2761  -1.4606
H  -1.5771  4.2690  -1.0803
H  -2.2293  3.8751  0.5617
H  -0.5036  4.2475  0.3717
H  -3.1135  1.9483  -0.4475
H  -2.7357  -0.1227  -1.7357
H  -1.0245  -0.1413  -1.4470
H  -3.3453  -1.3048  0.0590
H  -2.4531  -0.3247  1.1578
H  -2.5206  -3.9156  0.6970
H  -2.6280  -3.2286  -0.9325
H  -1.1122  -4.0366  -0.4952
H  0.3645  -3.0450  0.9030
H  -0.4764  -0.2078  1.4317
H  0.9323  -1.1699  2.1919
*