! b97-3c opt
%maxcore 5000
* xyz 0 1
C  -1.2493  -0.8132  -1.4709
C  -0.8751  -0.2049  -0.1679
C  -2.0061  0.5139  0.5212
C  -0.2332  -1.2218  0.7907
C  0.1895  -0.2870  1.9056
C  0.6258  0.9853  1.1624
C  0.3694  0.6887  -0.2767
C  0.2138  1.8297  -1.1736
C  1.3838  -0.3547  -0.7270
O  2.6799  0.0173  -0.4902
C  0.9879  -1.6233  0.0398
H  -0.6968  -0.3770  -2.3351
H  -2.3341  -0.5618  -1.6584
H  -1.1710  -1.9139  -1.4625
H  -2.2878  0.0323  1.4932
H  -2.9138  0.3752  -0.1291
H  -1.7955  1.5762  0.7164
H  -0.9036  -2.0065  1.0872
H  -0.5965  -0.0909  2.6305
H  1.0997  -0.7261  2.3696
H  1.7113  1.1658  1.2973
H  0.0460  1.8381  1.5560
H  0.4047  2.7794  -0.6237
H  1.0271  1.7916  -1.9572
H  -0.7335  1.8646  -1.7594
H  1.2595  -0.6083  -1.7996
H  3.1156  -0.3978  0.2746
H  0.8766  -2.4873  -0.6145
H  1.8059  -1.7835  0.8013
*