! b97-3c opt
%maxcore 5000
* xyz 0 1
C  -2.2680  -0.1554  0.2554
C  -0.7696  -0.0535  0.3134
C  -0.0891  -1.2220  -0.3769
C  1.3502  -1.2229  0.1543
C  1.9376  0.0916  -0.1564
O  3.0571  0.1422  -0.6112
C  1.1982  1.3430  0.0722
C  -0.2548  1.1953  -0.3824
H  -2.6753  0.6329  -0.3889
H  -2.7093  0.0015  1.2710
H  -2.6272  -1.1333  -0.0945
H  -0.4568  0.0324  1.3737
H  0.0150  -0.9779  -1.4677
H  -0.5880  -2.1711  -0.2055
H  1.9273  -2.0666  -0.2113
H  1.2393  -1.2643  1.2774
H  1.6606  2.2220  -0.3706
H  1.1416  1.5128  1.1841
H  -0.8238  2.0923  -0.1445
H  -0.2649  1.0009  -1.4914
*