! b97-3c opt
%maxcore 5000
* xyz 0 1
C  3.8285  -1.1786  0.0918
C  2.5450  -0.4396  0.2622
C  1.4107  -1.0911  0.4314
C  0.0971  -0.4532  0.6081
C  0.1106  0.9229  0.0650
C  1.3357  1.4412  -0.5800
C  2.5731  1.0720  0.2299
C  -0.8488  1.8525  0.0495
C  -0.5433  3.1798  -0.5817
C  -2.2180  1.6900  0.6201
C  -2.6406  0.2815  0.7589
C  -2.1667  -0.5059  -0.4415
C  -0.9339  -1.3207  -0.0872
C  -1.3811  -2.4265  0.8425
C  -0.4069  -1.9543  -1.3431
H  4.6599  -0.5011  -0.1062
H  3.7095  -1.9711  -0.6845
H  4.0018  -1.7225  1.0463
H  1.4475  -2.1869  0.4412
H  -0.1282  -0.4961  1.6969
H  1.4449  0.8273  -1.5268
H  1.3342  2.4650  -0.9054
H  2.4742  1.5041  1.2257
H  3.4427  1.4462  -0.3333
H  0.1664  3.7886  0.0020
H  -0.3752  3.1279  -1.6601
H  -1.5130  3.7687  -0.4900
H  -2.2745  2.2779  1.5630
H  -2.9834  2.1940  -0.0456
H  -3.7466  0.2185  0.8781
H  -2.1240  -0.1470  1.6575
H  -1.9637  0.1125  -1.3210
H  -2.9687  -1.2639  -0.6653
H  -1.0141  -2.2135  1.8835
H  -0.9221  -3.4039  0.5730
H  -2.4684  -2.5237  0.9047
H  0.0037  -1.1920  -2.0422
H  -1.2752  -2.4060  -1.8691
H  0.3110  -2.7728  -1.1480
*