! b97-3c opt
%maxcore 5000
* xyz 0 1
C  3.9380  -0.3449  0.7011
C  2.5150  0.0108  0.4022
C  1.4956  -0.5314  1.0120
C  0.0734  -0.2262  0.7657
C  -0.1037  1.0370  -0.0079
C  1.0600  1.8866  -0.3998
C  2.2810  1.0250  -0.6391
C  -1.2910  1.4878  -0.4013
C  -1.2119  2.7679  -1.1574
C  -2.6568  0.9291  -0.2147
C  -2.7693  -0.1341  0.8035
C  -2.0444  -1.3891  0.6079
C  -0.6632  -1.3802  0.1352
C  0.0287  -2.6365  0.7053
C  -0.4495  -1.4721  -1.3440
H  4.0276  -1.1861  1.3937
H  4.4032  0.5561  1.1637
H  4.4238  -0.5127  -0.2804
H  1.7181  -1.2844  1.7791
H  -0.3826  -0.1211  1.7980
H  0.8851  2.3962  -1.3930
H  1.2808  2.6704  0.3470
H  3.1570  1.6749  -0.7945
H  2.0996  0.4814  -1.6046
H  -0.9579  2.6396  -2.2166
H  -2.2524  3.2099  -1.1615
H  -0.6083  3.5396  -0.6292
H  -3.1038  0.6062  -1.1839
H  -3.3037  1.7792  0.1007
H  -2.4483  0.2911  1.8043
H  -3.8492  -0.3531  0.9515
H  -2.0777  -1.9507  1.5890
H  -2.6542  -2.0483  -0.0806
H  -0.6458  -3.4896  0.4981
H  0.0645  -2.5197  1.8120
H  1.0133  -2.7764  0.2489
H  -0.8366  -2.4631  -1.6695
H  0.6560  -1.5283  -1.5033
H  -0.8106  -0.6406  -1.9379
*