! b97-3c opt
%maxcore 5000
* xyz 0 1
C  1.1505  -0.6540  -0.4094
C  1.0970  0.7969  -0.0671
O  0.0394  1.1355  0.7520
C  -1.1357  0.6610  0.2261
C  -1.0874  -0.8379  0.2125
O  0.1030  -1.4044  -0.0282
H  2.0873  -1.0880  0.0502
H  1.3167  -0.8074  -1.5162
H  2.0251  1.1634  0.4351
H  0.9907  1.3671  -1.0117
H  -1.3426  1.0730  -0.7925
H  -1.9583  0.9773  0.9232
H  -1.8159  -1.1594  -0.5830
H  -1.4698  -1.2232  1.2052
*