! b97-3c opt
%maxcore 5000
* xyz 0 1
C  1.6962  -0.2027  -0.0749
C  0.2320  0.0240  -0.0025
C  -0.3884  1.2179  0.2912
O  0.2893  2.4026  0.5668
O  -1.7013  1.0256  0.2614
C  -2.0058  -0.1946  -0.0273
C  -0.7946  -0.8712  -0.2044
H  1.9361  -1.2562  -0.3170
H  2.1748  -0.0178  0.9322
H  2.1621  0.4708  -0.8364
H  -2.9657  -0.6888  -0.1339
H  -0.6347  -1.9096  -0.4552
*