! b97-3c opt
%maxcore 5000
* xyz 0 1
C  0.2069  3.4549  -0.7497
C  -0.0613  2.2356  0.0667
C  -1.2930  1.7749  0.1423
C  -1.7477  0.5842  0.9000
C  -2.1056  -0.5553  -0.0700
C  -3.4872  -0.1914  -0.5858
C  -2.2387  -1.8401  0.6883
C  -1.1585  -0.6233  -1.2017
C  0.0495  -1.1048  -1.1906
C  0.7798  -1.7041  -0.0470
C  2.2558  -1.4231  -0.0520
C  3.0316  -2.5525  0.6571
O  2.9141  -0.9949  -1.1832
C  2.7666  -0.1513  0.0598
C  2.0666  1.0892  -0.2951
C  1.0934  1.6028  0.7552
H  -0.6823  4.1088  -0.8419
H  0.9632  4.0641  -0.1765
H  0.5740  3.1448  -1.7287
H  -2.0834  2.3105  -0.4050
H  -2.6952  0.9119  1.4317
H  -1.0966  0.2557  1.7040
H  -4.0025  -1.0550  -1.0503
H  -4.1045  0.2370  0.2425
H  -3.3636  0.6167  -1.3287
H  -3.3051  -2.1198  0.8036
H  -1.8412  -1.7816  1.7217
H  -1.7797  -2.6459  0.0835
H  -1.5035  -0.2226  -2.1699
H  0.6235  -1.0807  -2.1175
H  0.5978  -2.8185  -0.1594
H  0.3956  -1.4523  0.9377
H  2.7903  -3.5273  0.2140
H  4.1157  -2.3187  0.5886
H  2.7674  -2.4974  1.7315
H  3.7793  0.0080  0.5417
H  2.8219  1.9232  -0.4271
H  1.5483  1.0927  -1.2950
H  1.5898  2.4069  1.3811
H  0.8185  0.8389  1.4822
*