! b97-3c opt
%maxcore 5000
* xyz 0 1
C  2.5780  -0.8102  -0.0429
C  1.1538  -0.3760  -0.0210
O  0.0665  -1.0939  -0.0035
C  -1.0160  -0.3371  0.0129
C  -2.4432  -0.8081  0.0355
C  -0.6338  0.9865  0.0059
O  -1.4423  2.1234  0.0177
C  0.7455  0.9524  -0.0156
O  1.5120  1.9623  -0.0284
H  3.2426  -0.0653  0.4427
H  2.7086  -1.7503  0.5668
H  2.9426  -1.0531  -1.0464
H  -2.4532  -1.9075  -0.0991
H  -2.9252  -0.5083  1.0040
H  -2.9967  -0.3644  -0.8391
H  -1.0391  3.0497  0.0106
*