! b97-3c opt
%maxcore 5000
* xyz 0 1
C  2.5271  2.2721  -0.3575
C  1.9215  1.0453  0.1696
C  2.4758  0.3982  1.1664
C  1.7602  -0.8185  1.5941
O  2.2093  -1.5798  2.4879
C  0.4715  -1.0687  0.8849
C  -0.2487  0.2230  0.7461
C  0.6688  0.5138  -0.4139
C  0.7846  -0.9810  -0.6065
C  2.0948  -1.5061  -1.0307
C  -0.3151  -1.5932  -1.3819
C  -1.4035  -0.6778  -1.8211
C  -2.2856  -0.3331  -0.6646
C  -1.6826  0.2892  0.4964
C  -2.0418  1.7896  0.5091
C  -2.3836  -0.2609  1.7548
H  3.2324  2.0712  -1.2099
H  1.7596  2.9713  -0.8025
H  3.0649  2.8763  0.3964
H  3.3751  0.7606  1.6035
H  -0.0839  -1.9466  1.1961
H  -0.0031  0.8803  1.6365
H  0.2905  1.1066  -1.2300
H  2.8921  -0.7693  -1.1949
H  2.4527  -2.2411  -0.2827
H  1.9814  -2.0555  -1.9808
H  0.0401  -2.1449  -2.3023
H  -0.8018  -2.4053  -0.7664
H  -2.0517  -1.2832  -2.5287
H  -1.0714  0.1764  -2.4220
H  -2.8264  -1.2881  -0.3882
H  -3.1090  0.3159  -1.0795
H  -1.5238  2.1817  1.4276
H  -3.1164  1.9395  0.6112
H  -1.5763  2.2999  -0.3467
H  -3.4667  -0.1257  1.6970
H  -2.0633  -1.3200  1.8219
H  -1.9477  0.2881  2.6115
*