! b97-3c opt
%maxcore 5000
* xyz 0 1
C  1.4495  -0.0519  0.6403
C  0.6075  0.3008  -0.5782
S  1.4535  1.3737  -1.7252
C  -0.7279  0.8838  -0.1033
C  -1.2711  -0.3701  0.5993
C  -0.7689  -1.4453  -0.3302
O  0.1627  -0.8891  -1.1664
H  1.2378  0.6212  1.4988
H  2.5348  -0.0384  0.3738
H  1.1596  -1.0793  0.9695
H  1.2207  2.7124  -1.3401
H  -1.3317  1.0879  -1.0022
H  -0.6031  1.7208  0.5780
H  -0.7570  -0.4426  1.5783
H  -2.3555  -0.2928  0.6551
H  -0.3396  -2.2784  0.2477
H  -1.6713  -1.8127  -0.8952
*