! b97-3c opt
%maxcore 5000
* xyz 0 1
C  1.6815  -0.4329  1.0125
C  0.7373  0.0157  -0.0496
C  1.3783  -0.0367  -1.3821
C  0.1849  1.4112  0.2894
C  -0.8091  1.5768  -0.8356
C  -1.4209  0.1875  -0.9186
C  -0.6085  -0.6882  0.0119
C  -0.5869  -2.1106  -0.3113
C  -1.0149  -0.3346  1.3942
O  -1.5729  -1.0197  2.2292
C  -0.5723  1.0988  1.5409
H  2.4420  0.3893  1.1543
H  2.1843  -1.3556  0.7064
H  1.2041  -0.5541  2.0014
H  2.0622  0.8572  -1.4721
H  2.0408  -0.9145  -1.4322
H  0.6685  0.0081  -2.2304
H  0.9408  2.1655  0.3565
H  -1.5630  2.3374  -0.5667
H  -0.2679  1.8171  -1.7811
H  -1.4146  -0.2203  -1.9412
H  -2.4403  0.2525  -0.4894
H  -0.2876  -2.7074  0.5524
H  -1.5851  -2.4163  -0.7106
H  0.1344  -2.2908  -1.1404
H  -1.5004  1.7009  1.5437
H  -0.0145  1.2636  2.4686
*