! b97-3c opt
%maxcore 5000
* xyz 0 1
C  1.1815  0.7013  1.3781
C  0.7465  0.0352  0.1212
C  1.7902  0.0706  -0.9391
C  0.2581  -1.3945  0.4105
C  -0.8793  -1.1493  1.3308
C  -1.4635  0.1782  0.8461
C  -0.6089  0.5494  -0.3699
C  -0.6360  1.9607  -0.7332
C  -0.8628  -0.4211  -1.4626
O  -1.3749  -0.2930  -2.5559
C  -0.3353  -1.7226  -0.9594
H  0.5449  0.4784  2.2391
H  1.2057  1.8009  1.2648
H  2.1994  0.3773  1.6148
H  2.8104  0.3093  -0.5334
H  1.5544  0.8991  -1.6524
H  1.9032  -0.8498  -1.5210
H  1.0310  -2.0576  0.7299
H  -0.6595  -1.1591  2.3930
H  -1.6706  -1.9267  1.1168
H  -2.4984  0.0769  0.4981
H  -1.3170  0.9870  1.5785
H  -1.4353  2.1381  -1.5018
H  -0.9700  2.5664  0.1596
H  0.3140  2.4156  -1.0524
H  0.3760  -2.1995  -1.6253
H  -1.2038  -2.3712  -0.7749
*