! b97-3c opt
%maxcore 5000
* xyz 0 1
C  -1.9281  -0.6418  0.2005
C  -0.5093  -0.2055  0.0994
C  -0.1240  0.9706  -0.3693
O  -0.9946  1.9741  -0.8366
C  1.3260  1.0715  -0.3311
O  2.0067  2.1103  -0.3470
C  1.7877  -0.3352  -0.2697
C  0.6786  -0.9855  0.5024
H  -2.5821  0.2256  0.2159
H  -2.0211  -1.2823  1.1226
H  -2.1561  -1.3325  -0.6551
H  -1.5309  2.4918  -0.1268
H  1.7752  -0.7302  -1.3029
H  2.7737  -0.4407  0.2169
H  0.5724  -2.0673  0.2864
H  0.9258  -0.8228  1.5943
*