! b97-3c opt
%maxcore 5000
* xyz 0 1
C  2.7482  1.0597  0.1772
C  1.2699  0.9004  0.1473
C  0.7201  -0.3658  -0.0513
C  1.6680  -1.4981  -0.2238
C  -0.6520  -0.5534  -0.0852
C  -1.1700  -1.9305  -0.3009
C  -1.4863  0.5116  0.0772
C  -2.9581  0.3451  0.0462
C  -0.9445  1.7682  0.2743
C  0.4221  1.9764  0.3114
H  3.1757  0.7558  1.1562
H  3.2232  0.5062  -0.6750
H  2.9825  2.1391  -0.0289
H  1.2832  -2.4470  0.1972
H  2.6095  -1.2774  0.3601
H  2.0072  -1.5955  -1.2793
H  -1.4941  -2.3089  0.6874
H  -2.0990  -1.8866  -0.9386
H  -0.4725  -2.5833  -0.8326
H  -3.4774  1.3163  0.0462
H  -3.3425  -0.2319  0.9165
H  -3.3043  -0.1996  -0.8547
H  -1.5671  2.6409  0.4076
H  0.8581  2.9582  0.4654
*