! b97-3c opt
%maxcore 5000
* xyz 0 1
C  -2.2626  -0.2256  0.1025
C  -0.7826  -0.1769  0.4008
C  -0.2912  1.1827  -0.1144
C  1.1165  1.4459  0.3201
C  1.9299  0.2478  0.0235
O  3.1379  0.3661  0.1547
C  1.4274  -1.0641  -0.4115
C  -0.0219  -1.2986  -0.2181
H  -2.5074  -0.9703  -0.6802
H  -2.8420  -0.4491  1.0459
H  -2.6665  0.7460  -0.2507
H  -0.6523  -0.1459  1.5025
H  -0.4041  1.2200  -1.2224
H  -0.9518  1.9415  0.3585
H  1.1286  1.6870  1.4012
H  1.4898  2.3085  -0.2963
H  1.7485  -1.1993  -1.4869
H  2.0406  -1.8409  0.1362
H  -0.4751  -1.5777  -1.2077
H  -0.1615  -2.1972  0.4423
*