! b97-3c opt
%maxcore 5000
* xyz 0 1
C  3.0985  1.0868  0.4123
C  1.7949  0.4557  0.0418
C  0.7009  1.2376  -0.1175
C  -0.5001  0.5046  -0.4762
C  -0.4645  -0.6454  0.5950
C  0.3966  -1.6367  -0.0516
C  1.7916  -1.0011  -0.1287
C  -1.6319  0.0507  0.2233
C  -2.7058  -0.7252  -0.5386
C  -2.2774  1.0011  1.2358
H  3.1512  2.1281  0.0225
H  3.2261  1.1381  1.5094
H  3.9641  0.5484  -0.0590
H  0.7497  2.2909  0.0153
H  -0.4197  0.1736  -1.5567
H  -0.0357  -0.3733  1.6072
H  0.0784  -1.8364  -1.1082
H  0.4428  -2.6298  0.4364
H  2.3308  -1.3207  -1.0313
H  2.3553  -1.4352  0.7430
H  -2.2556  -1.0532  -1.5185
H  -3.0541  -1.6060  -0.0002
H  -3.4938  0.0025  -0.7986
H  -3.3068  1.2474  0.9861
H  -1.6578  1.9300  1.3235
H  -2.2778  0.4671  2.2124
*