! b97-3c opt
%maxcore 5000
* xyz 0 1
C  -2.0449  0.0065  -0.8508
C  -0.8326  -0.2112  -0.0046
C  -1.2597  -0.8617  1.2903
C  0.2238  -1.0118  -0.7290
C  1.3381  -1.2755  0.2402
C  2.1639  0.0191  0.3218
C  1.2370  0.9856  -0.3853
C  0.8568  0.0994  -1.5880
C  -0.0873  1.0460  0.2857
C  -0.5363  2.0423  1.0182
H  -1.9085  0.7546  -1.6466
H  -2.3874  -0.9816  -1.2183
H  -2.8449  0.4280  -0.1746
H  -2.2856  -0.4973  1.5148
H  -1.2983  -1.9606  1.2303
H  -0.6327  -0.5166  2.1525
H  -0.1287  -1.8468  -1.2993
H  1.9915  -2.1072  -0.1389
H  0.9418  -1.5081  1.2501
H  3.0538  -0.1162  -0.3206
H  2.3852  0.2994  1.3547
H  1.6672  1.9238  -0.6637
H  1.7510  -0.2674  -2.1095
H  0.1202  0.5981  -2.2169
H  -1.5236  2.0179  1.4825
H  0.0399  2.9415  1.2050
*