! b97-3c opt
%maxcore 5000
* xyz 0 1
C  0.2971  3.0523  0.6724
C  -0.3287  1.9992  -0.2116
C  -1.8215  2.2491  -0.3907
C  -2.4870  0.8899  -0.3642
C  -1.2874  -0.0754  -0.4183
C  -0.3551  0.6448  0.4681
C  0.9405  0.0698  0.7998
C  1.2897  -1.2851  0.5201
C  0.7184  -2.1332  -0.4880
C  -0.7276  -2.3830  -0.6002
C  -1.6505  -1.4349  0.0780
C  -1.7703  -1.5823  1.5428
O  -2.9381  -1.7058  -0.4587
C  2.1150  -0.0924  -0.0349
C  2.1747  0.0831  -1.5191
C  3.5412  0.0458  0.5441
H  -0.1889  4.0267  0.5814
H  1.3467  3.1826  0.3074
H  0.3685  2.6775  1.7128
H  0.1064  1.9686  -1.2159
H  -2.0323  2.7523  -1.3442
H  -2.2215  2.8865  0.4440
H  -3.1448  0.7516  -1.2440
H  -3.0304  0.7571  0.5985
H  -1.0455  -0.1318  -1.4829
H  -0.9749  0.8396  1.4031
H  1.2566  0.4520  1.8323
H  1.8367  -1.8421  1.3543
H  1.1044  -1.8632  -1.5212
H  1.1730  -3.1784  -0.4092
H  -1.0506  -3.4172  -0.2626
H  -1.0546  -2.3831  -1.6867
H  -1.0035  -1.1413  2.1685
H  -2.7938  -1.2121  1.8479
H  -1.7977  -2.6757  1.7800
H  -2.9579  -1.3365  -1.3749
H  2.7110  1.0214  -1.7200
H  1.2586  0.0724  -2.0737
H  2.8134  -0.7607  -1.9152
H  3.5401  -0.4335  1.5360
H  4.2674  -0.4761  -0.1141
H  3.8033  1.1217  0.6587
*