! b97-3c opt
%maxcore 5000
* xyz 0 1
C  3.7466  -1.1023  0.7676
C  2.4707  -0.4521  0.2928
C  2.7202  0.6189  -0.7491
C  1.3930  1.1421  -1.1966
C  0.8201  2.0052  -0.1028
C  -0.6686  1.7750  -0.0731
C  -1.2709  3.0153  0.6052
C  -0.9719  0.6166  0.7791
C  -2.4539  0.2172  0.7974
C  -2.0705  -1.0466  0.0642
C  -2.5504  -1.0004  -1.3466
C  -2.5510  -2.3240  0.7358
C  -0.6382  -0.7245  0.3211
C  0.3065  -0.8740  -0.8184
C  1.6332  -1.5168  -0.3777
O  0.4964  0.2123  -1.6073
H  3.5114  -1.6026  1.7483
H  4.5826  -0.4036  0.8577
H  4.0123  -1.9082  0.0506
H  1.8958  -0.0885  1.1593
H  3.2176  0.0998  -1.6077
H  3.3103  1.4588  -0.3556
H  1.5983  1.8272  -2.0724
H  1.2904  1.8391  0.8821
H  0.9683  3.0987  -0.3211
H  -1.0419  1.7563  -1.0915
H  -0.7039  3.1971  1.5473
H  -2.3165  2.8528  0.8805
H  -1.1262  3.9182  -0.0153
H  -0.6884  0.8445  1.8508
H  -3.0783  0.9177  0.2189
H  -2.8619  -0.0242  1.7771
H  -2.1076  -1.7715  -2.0084
H  -3.6522  -1.2514  -1.3169
H  -2.5057  0.0015  -1.8170
H  -2.5640  -2.2240  1.8428
H  -1.7479  -3.0895  0.5263
H  -3.4745  -2.7081  0.3046
H  -0.2673  -1.3601  1.1833
H  -0.1392  -1.6750  -1.4865
H  2.1420  -1.9950  -1.2235
H  1.3352  -2.2721  0.3946
*