! b97-3c opt
%maxcore 5000
* xyz 0 1
C  3.0387  0.9687  0.2688
C  1.7744  0.2348  -0.0649
C  1.3424  0.2372  -1.2950
C  0.1251  -0.4450  -1.7240
C  -0.6900  -1.0667  -0.6597
C  -0.2588  -0.9975  0.7101
C  1.0853  -0.4540  1.0264
C  -1.4055  -0.1737  0.3126
C  -1.3736  1.3028  0.1727
C  -2.8141  -0.6710  0.6810
H  2.8191  1.9065  0.8161
H  3.6302  0.3125  0.9268
H  3.6323  1.1281  -0.6529
H  1.9161  0.7745  -2.0434
H  -0.5293  0.2981  -2.2662
H  0.4119  -1.1821  -2.5123
H  -1.2126  -2.0128  -1.0006
H  -0.5252  -1.8743  1.3791
H  1.7589  -1.2805  1.3695
H  0.9718  0.1967  1.9446
H  -0.4135  1.7695  0.0216
H  -2.0207  1.5756  -0.7124
H  -1.9416  1.7302  1.0511
H  -3.4808  -0.4568  -0.1732
H  -3.1098  -0.0765  1.5620
H  -2.7306  -1.7442  0.8621
*