! b97-3c opt
%maxcore 5000
* xyz 0 1
C  1.6295  3.1562  -0.6432
C  0.6279  2.1235  -0.0765
C  -0.4277  1.9583  -0.8105
C  -1.6538  1.1673  -0.7996
C  -2.2193  0.6399  0.4632
C  -2.2396  -0.8831  0.4690
C  -2.9052  -1.1697  1.8585
C  -3.1754  -1.4160  -0.5659
C  -0.9020  -1.5301  0.5261
C  0.1226  -1.6148  -0.2367
C  1.4834  -2.2278  -0.2458
C  2.3995  -1.1205  -0.7669
C  3.0541  -1.3733  -2.0675
C  2.6222  0.0107  -0.1254
C  2.0942  0.4691  1.1574
C  1.0741  1.5349  1.1927
H  1.0307  4.0379  -1.0204
H  2.2006  2.6708  -1.4501
H  2.2609  3.5645  0.1619
H  -0.4162  2.6242  -1.7749
H  -1.6551  0.3673  -1.6006
H  -2.5177  1.8241  -1.2360
H  -1.9236  1.0936  1.3971
H  -3.3501  0.8781  0.4303
H  -3.7413  -0.4805  1.9527
H  -3.1331  -2.2298  1.9545
H  -2.1216  -0.8715  2.5863
H  -3.9545  -2.0993  -0.1338
H  -2.6324  -2.0286  -1.3112
H  -3.7360  -0.5861  -1.0329
H  -0.8621  -2.0693  1.5106
H  0.0801  -1.1210  -1.2726
H  1.9105  -2.7063  0.5943
H  1.5109  -3.0105  -1.0779
H  2.3730  -1.1364  -2.9272
H  4.0014  -0.7936  -2.1907
H  3.3381  -2.4398  -2.2054
H  3.3146  0.7391  -0.6125
H  1.6910  -0.4012  1.7745
H  2.9576  0.8151  1.8360
H  1.5378  2.4001  1.8049
H  0.2516  1.2343  1.8809
*