! b97-3c opt
%maxcore 5000
* xyz 0 1
C  -3.0099  -2.0192  0.9820
C  -1.8937  -1.6703  0.0506
C  -0.6640  -1.9846  0.4135
C  0.5749  -1.7249  -0.3666
C  1.5484  -0.9630  0.5055
C  2.4169  0.0103  -0.2371
C  3.8735  -0.3757  0.1511
C  2.4046  -0.1423  -1.7256
C  2.1663  1.3854  0.2476
C  1.1329  2.1529  0.1426
C  -0.1836  1.9496  -0.4982
C  -1.2528  1.6786  0.5341
C  -1.0303  2.2156  1.9006
C  -2.3274  0.9887  0.1980
C  -2.5949  0.4313  -1.1558
C  -2.3178  -0.9993  -1.1983
H  -4.0031  -1.8263  0.5899
H  -2.9828  -3.0922  1.2798
H  -2.8897  -1.3913  1.8978
H  -0.4894  -2.4851  1.3711
H  1.1003  -2.6780  -0.6457
H  0.4339  -1.1579  -1.2710
H  2.1945  -1.6438  1.0901
H  0.9595  -0.3974  1.2656
H  4.5803  0.3225  -0.3040
H  4.0465  -1.4412  -0.1198
H  3.8808  -0.3290  1.2582
H  2.3288  -1.2214  -1.9686
H  3.4116  0.1525  -2.1584
H  1.6787  0.4113  -2.2895
H  3.0413  1.8156  0.8008
H  1.2125  3.1621  0.6140
H  -0.4777  2.9233  -1.0050
H  -0.2598  1.1320  -1.2058
H  -0.4828  3.1718  1.8435
H  -2.0058  2.4452  2.4044
H  -0.5284  1.4723  2.5630
H  -3.0785  0.8069  0.9582
H  -2.1464  1.0443  -1.9625
H  -3.7062  0.5880  -1.3228
H  -1.4811  -1.1758  -1.9402
H  -3.1801  -1.5411  -1.6873
*