! b97-3c opt
%maxcore 5000
* xyz 0 1
C  -1.7095  -0.9002  -0.4830
C  -0.7677  -0.3096  0.5516
C  -1.0963  1.1421  0.7124
C  -0.0478  1.8213  -0.1082
O  -0.0304  2.9889  -0.5769
C  1.0287  0.8528  -0.2952
O  2.3080  1.1427  -0.7949
C  0.6479  -0.3604  0.0704
C  1.5150  -1.5827  0.0058
H  -1.1729  -1.5000  -1.2362
H  -2.4374  -1.5298  0.0634
H  -2.2987  -0.0908  -1.0059
H  -0.7975  -0.8778  1.5004
H  -1.0193  1.4218  1.7859
H  -2.0715  1.4051  0.2710
H  2.6776  2.0358  -0.5723
H  2.5204  -1.3693  0.4751
H  1.6853  -1.9143  -1.0198
H  1.0660  -2.3754  0.6567
*