! b97-3c opt
%maxcore 5000
* xyz 0 1
O  0.5451  1.0795  1.8612
C  0.4359  0.6294  0.7596
C  -0.7816  0.5868  -0.0658
C  -1.0913  -0.8977  -0.3001
S  0.6227  -1.5005  -0.5965
C  1.5131  0.0076  -0.0286
H  -1.6070  1.1086  0.4182
H  -0.5918  1.0016  -1.0896
H  -1.5165  -1.3346  0.6091
H  -1.6772  -1.0388  -1.2014
H  2.4081  -0.2606  0.5567
H  1.7405  0.6187  -0.9227
*