! b97-3c opt
%maxcore 5000
* xyz 0 1
C  -1.9961  -0.2462  0.2865
C  -0.7647  0.0140  -0.5499
C  -0.5655  1.4607  -0.8458
C  0.7568  1.7595  -0.2472
O  1.2649  2.9020  -0.2151
C  1.3247  0.5252  0.2725
O  2.5926  0.4355  0.8578
C  0.4712  -0.4744  0.1071
C  0.7298  -1.8741  0.5242
H  -1.8878  -1.2404  0.7954
H  -2.1943  0.5513  1.0137
H  -2.8738  -0.3252  -0.3918
H  -0.9306  -0.5182  -1.5192
H  -1.3535  2.1157  -0.4151
H  -0.4702  1.6472  -1.9352
H  3.3531  0.0323  0.3123
H  0.0218  -2.5889  0.1061
H  0.7700  -1.9623  1.6488
H  1.7512  -2.2137  0.1949
*