! b97-3c opt
%maxcore 5000
* xyz 0 1
C  -2.0567  -1.0020  -0.6518
C  -1.1790  -0.0264  0.1164
C  -2.0111  0.6428  1.1416
C  -0.5467  0.8901  -0.8872
C  0.3763  1.9043  -0.2482
C  1.5919  1.1175  0.2436
C  1.2088  -0.3067  -0.0937
C  2.3316  -1.2529  -0.1677
C  0.5189  -0.0705  -1.4516
C  0.0273  -0.7622  0.7192
O  0.1483  -0.5142  2.0666
H  -3.1367  -0.9081  -0.3358
H  -1.7646  -2.0485  -0.4966
H  -2.0631  -0.7919  -1.7408
H  -2.1091  -0.0673  2.0155
H  -3.0466  0.7786  0.7714
H  -1.6272  1.5735  1.5512
H  -1.1995  1.2844  -1.6485
H  -0.0697  2.4571  0.5742
H  0.6514  2.6346  -1.0346
H  2.4293  1.3909  -0.4227
H  1.7936  1.2821  1.3031
H  2.4987  -1.6827  -1.1766
H  3.2619  -0.7384  0.1839
H  2.1830  -2.0879  0.5779
H  1.1932  0.4272  -2.1429
H  0.0750  -1.0069  -1.7930
H  -0.1362  -1.8286  0.5666
H  0.6571  -1.2881  2.4604
*