! b97-3c opt
%maxcore 5000
* xyz 0 1
C  -1.9347  -0.7024  0.1397
C  -0.4483  -0.7502  0.0454
C  0.3852  0.3351  -0.0489
C  0.0128  1.7661  -0.0781
C  1.6722  -0.1529  -0.1140
S  3.2059  0.7856  -0.2482
C  1.5653  -1.5333  -0.0558
O  0.2892  -1.8312  0.0378
H  -2.3577  -1.3327  -0.6657
H  -2.1870  -1.1161  1.1550
H  -2.2806  0.3455  0.0551
H  -0.6491  1.9458  0.7948
H  0.8926  2.4008  0.0473
H  -0.5970  2.0242  -0.9769
H  2.4314  -2.1843  -0.0876
*