! b97-3c opt
%maxcore 5000
* xyz 0 1
C  2.3140  -0.1700  0.2766
C  0.9552  -0.0317  -0.3554
C  0.0222  -1.1593  0.0314
C  -1.3319  -0.8224  -0.6063
C  -1.9505  0.2404  0.2923
C  -1.0917  1.4696  0.1529
O  -1.5916  2.6238  0.0924
C  0.3494  1.2532  0.0916
O  1.0820  2.2389  0.4471
H  2.8976  -0.9738  -0.2467
H  2.2516  -0.4395  1.3455
H  2.8334  0.7968  0.1852
H  1.0581  -0.0618  -1.4547
H  0.3384  -2.1285  -0.3670
H  -0.1276  -1.1800  1.1465
H  -1.1402  -0.3293  -1.5884
H  -1.9659  -1.7003  -0.7155
H  -2.9733  0.4179  -0.0779
H  -1.9292  -0.0440  1.3505
*