! b97-3c opt
%maxcore 5000
* xyz 0 1
C  1.8881  -0.4067  0.0399
C  0.6670  0.3691  -0.3438
C  -0.4626  -0.5337  -0.7983
C  -1.6671  0.2514  -0.2611
C  -1.1331  0.6346  1.0774
O  -1.7403  0.6142  2.1809
O  0.1806  1.0175  0.8316
H  2.3213  -0.8936  -0.8497
H  1.6093  -1.1141  0.8417
H  2.6345  0.3168  0.4319
H  0.9570  1.0982  -1.1217
H  -0.5029  -0.6706  -1.8776
H  -0.4435  -1.4755  -0.2304
H  -2.5690  -0.3586  -0.2108
H  -1.7392  1.1508  -0.8817
*