! b97-3c opt
%maxcore 5000
* xyz 0 1
C  -1.3630  -0.8649  -0.2628
C  -0.6899  0.3993  0.2239
O  -1.5813  1.3733  0.5868
C  0.3680  0.8304  -0.7315
C  1.6491  0.1251  -0.2855
C  1.2291  -0.5948  0.9505
O  1.7900  -1.5919  1.5040
O  0.0842  0.0534  1.3818
H  -2.4173  -0.8615  0.0800
H  -1.2556  -0.8815  -1.3619
H  -0.8356  -1.7719  0.1250
H  -2.0817  1.0277  1.3905
H  0.1586  0.5262  -1.7827
H  0.5093  1.9237  -0.7234
H  2.0255  -0.5658  -1.0676
H  2.4107  0.8733  -0.0271
*