! b97-3c opt
%maxcore 5000
* xyz 0 1
C  1.9819  -0.3028  0.2878
C  0.4961  -0.4613  0.3567
O  -0.0000  -1.0553  -0.8278
C  -1.3748  -1.0318  -0.4944
C  -1.5488  0.4458  -0.2827
O  -2.4816  1.1596  -0.5781
C  -0.2557  0.8304  0.3994
O  0.3509  1.8501  -0.3296
H  2.4192  -1.3169  0.1512
H  2.3469  0.0742  1.2465
H  2.2760  0.2888  -0.5861
H  0.1896  -1.1103  1.1867
H  -2.0060  -1.4276  -1.2845
H  -1.4576  -1.5073  0.4827
H  -0.5472  1.1423  1.4186
H  -0.3890  2.4220  -0.6805
*