! b97-3c opt
%maxcore 5000
* xyz 0 1
C  2.9481  -2.7258  0.4962
C  2.1095  -1.5984  -0.1563
C  0.6931  -1.9040  -0.0896
C  -0.3130  -1.1226  -0.8097
C  -0.8482  -0.0488  0.0999
C  -0.6472  1.3431  -0.3671
C  -2.0141  1.6522  0.2671
C  -2.3431  0.1904  -0.0095
C  -3.0910  -0.4895  1.1106
C  -2.9315  0.0445  -1.3680
C  0.4018  2.0174  0.4410
C  0.2235  3.2327  0.9281
C  1.6730  1.2880  0.6942
C  2.1955  0.8691  -0.6806
C  2.7588  -0.5130  -0.6067
O  2.4781  -1.4433  -1.6144
H  3.9936  -2.6723  0.1310
H  2.4747  -3.6973  0.3948
H  2.9568  -2.4652  1.5847
H  0.3864  -1.9223  1.0033
H  0.5707  -2.9964  -0.3800
H  -0.0656  -0.7890  -1.8231
H  -1.2114  -1.8028  -0.9729
H  -0.5866  -0.1724  1.1670
H  -0.6024  1.5108  -1.4492
H  -2.6100  2.3738  -0.2967
H  -1.9285  1.8059  1.3556
H  -3.1490  -1.5617  0.8676
H  -2.4475  -0.3711  2.0276
H  -4.0903  -0.0502  1.2761
H  -2.3206  -0.5060  -2.0908
H  -3.8883  -0.5435  -1.2530
H  -3.2609  1.0315  -1.7845
H  0.9605  3.7553  1.5189
H  -0.7103  3.7373  0.7274
H  2.3961  1.9334  1.2341
H  1.5321  0.3825  1.3105
H  1.4457  1.0218  -1.4795
H  2.9733  1.6574  -0.9246
H  3.8883  -0.4514  -0.4791
*