! b97-3c opt
%maxcore 5000
* xyz 0 1
C  3.3691  1.4339  -0.9754
C  2.8740  0.4361  0.0147
C  3.9281  -0.1828  0.8657
C  1.5890  0.1305  0.1204
C  1.0721  -0.8504  1.0882
C  0.0016  -1.7209  0.5084
C  -1.0618  -1.0180  -0.2385
C  -1.4055  -1.8711  -1.4509
C  -2.3295  -1.0405  0.6207
C  -3.4130  -0.1673  0.0271
C  -2.9946  1.3062  0.0377
C  -1.5145  1.2993  0.1968
C  -0.9785  2.1014  1.0913
C  -0.7668  0.3640  -0.6902
C  0.6279  0.7938  -0.7629
H  4.2811  1.9431  -0.6079
H  3.5787  0.8581  -1.9109
H  2.6459  2.2083  -1.2293
H  3.5589  -0.4850  1.8610
H  4.3759  -1.0094  0.2857
H  4.7474  0.5474  1.0552
H  1.8738  -1.5537  1.4499
H  0.6893  -0.3876  2.0346
H  -0.4178  -2.3218  1.3669
H  0.5223  -2.4906  -0.1279
H  -1.8072  -1.2549  -2.2798
H  -0.4944  -2.3728  -1.8484
H  -2.1191  -2.6718  -1.1807
H  -2.7050  -2.0829  0.5745
H  -2.1217  -0.8054  1.6681
H  -3.5409  -0.4574  -1.0372
H  -4.3235  -0.3389  0.6211
H  -3.4886  1.8242  0.8871
H  -3.3068  1.8194  -0.9010
H  0.0931  2.1803  1.2941
H  -1.5888  2.7545  1.7018
H  -1.2262  0.5197  -1.7147
H  0.7360  1.9013  -0.6036
H  1.0404  0.6618  -1.8118
*