! b97-3c opt
%maxcore 5000
* xyz 0 1
C  2.8918  -0.4174  0.1392
C  1.5020  0.1455  0.0546
C  1.3585  1.4354  0.2645
C  0.0258  2.0043  0.1886
O  -0.2539  3.1194  0.6759
C  -1.0153  1.2091  -0.4973
C  -0.9515  -0.2406  -0.0965
C  -1.8785  -1.0010  -1.0511
C  -1.3955  -0.4638  1.3295
C  0.4204  -0.7970  -0.2563
H  3.0927  -0.8586  -0.8792
H  2.8278  -1.2438  0.9064
H  3.6214  0.3397  0.4253
H  2.2113  2.0683  0.4900
H  -2.0329  1.6052  -0.3338
H  -0.7844  1.2496  -1.5888
H  -2.6486  -0.3157  -1.4638
H  -2.4119  -1.7996  -0.5245
H  -1.2681  -1.3925  -1.9114
H  -0.6481  -0.0608  2.0199
H  -1.4020  -1.5744  1.4845
H  -2.4203  -0.1091  1.5176
H  0.5740  -1.2043  -1.2986
H  0.5853  -1.6979  0.4057
*