! b97-3c opt
%maxcore 5000
* xyz 0 1
C  -1.9037  0.4946  0.8448
C  -0.6896  0.5264  -0.0154
C  -0.4242  1.9284  -0.4370
C  -0.8138  -0.4167  -1.2254
C  -0.8908  -1.7486  -0.5010
C  -0.0127  -1.5827  0.7368
C  0.5084  -0.1661  0.5937
C  1.0467  0.4300  1.8113
C  1.4551  -0.2050  -0.5931
O  2.3166  0.8473  -0.6482
C  0.5470  -0.3042  -1.8236
H  -2.8172  0.5048  0.1879
H  -1.9551  1.4738  1.4037
H  -1.9415  -0.2880  1.5944
H  -0.0401  2.5046  0.4149
H  -1.3984  2.3868  -0.7145
H  0.2612  2.0555  -1.2722
H  -1.6494  -0.1932  -1.8577
H  -1.9073  -2.0523  -0.2541
H  -0.3722  -2.4845  -1.1715
H  0.8700  -2.2513  0.6956
H  -0.5406  -1.7688  1.6661
H  0.9822  1.5101  1.8710
H  0.5108  -0.0012  2.7012
H  2.1315  0.1628  1.9083
H  2.0245  -1.1608  -0.5234
H  3.2589  0.5549  -0.4861
H  0.7491  -1.2643  -2.3800
H  0.6950  0.5075  -2.5266
*