! b97-3c opt
%maxcore 5000
* xyz 0 1
O  3.2417  -1.9197  -0.1725
C  2.2561  -1.1408  -0.0846
O  1.0230  -1.5842  -0.2323
C  -0.0228  -0.8131  -0.1490
C  -1.2898  -1.3206  -0.3102
C  -2.4071  -0.4913  -0.2203
C  -2.2457  0.8533  0.0329
C  -0.9831  1.3675  0.1951
C  0.1507  0.5488  0.1080
C  1.4264  1.0516  0.2688
C  2.5113  0.1908  0.1713
H  -1.4081  -2.3666  -0.5069
H  -3.3890  -0.9416  -0.3556
H  -3.1089  1.4772  0.0994
H  -0.8320  2.4129  0.3933
H  1.5602  2.0991  0.4665
H  3.5170  0.5765  0.2962
*