! b97-3c opt
%maxcore 5000
* xyz 0 1
C  2.4182  0.7709  -1.0390
C  1.2238  0.1359  -0.4210
C  1.4657  0.0267  1.0831
C  0.2304  -0.5532  1.7261
C  -0.7802  -0.8580  0.6543
C  -0.1142  -1.8038  -0.3227
C  0.9722  -1.2530  -0.8998
C  -1.0643  0.4054  -0.1637
C  -2.0554  -0.0380  -1.2493
C  -1.7219  1.4711  0.6381
O  0.1016  0.8812  -0.7063
H  2.5038  1.7929  -0.6151
H  3.3723  0.2616  -0.8145
H  2.2789  0.9155  -2.1384
H  2.3301  -0.6723  1.1912
H  1.6871  1.0091  1.5155
H  -0.1646  0.1367  2.4815
H  0.5031  -1.5335  2.2001
H  -1.6826  -1.3253  1.0366
H  -0.4683  -2.7858  -0.5242
H  1.5793  -1.7704  -1.6229
H  -2.2749  0.7819  -1.9501
H  -1.6372  -0.9246  -1.7795
H  -2.9551  -0.3872  -0.6976
H  -1.3342  1.5937  1.6618
H  -2.8254  1.2826  0.6436
H  -1.5883  2.4397  0.1123
*