! b97-3c opt
%maxcore 5000
* xyz 0 1
C  2.2123  1.5611  -0.5376
C  1.1692  0.5235  -0.3098
C  1.4969  -0.3163  0.9342
C  0.4011  -1.3093  1.1879
C  -0.6131  -1.2050  0.0814
C  0.1103  -1.3892  -1.2358
C  1.0525  -0.4613  -1.4241
C  -1.1046  0.2351  0.0664
C  -1.7946  0.6104  1.3404
C  -2.1492  0.3076  -1.0513
O  -0.0848  1.1095  -0.1756
H  2.3082  1.8698  -1.5933
H  3.1874  1.1448  -0.1518
H  1.9571  2.4400  0.1204
H  2.4379  -0.8652  0.6701
H  1.6499  0.4008  1.7558
H  0.7673  -2.3379  1.3577
H  -0.1065  -1.0099  2.1422
H  -1.4195  -1.9284  0.1270
H  -0.1200  -2.1755  -1.9215
H  1.6946  -0.3864  -2.2813
H  -2.5517  -0.1388  1.6516
H  -2.3606  1.5564  1.1481
H  -1.0738  0.8463  2.1525
H  -1.5589  0.4699  -1.9965
H  -2.6432  -0.6773  -1.1869
H  -2.8642  1.1252  -0.8702
*