! b97-3c opt
%maxcore 5000
* xyz 0 1
C  2.2740  0.2746  0.1917
C  0.8963  -0.0242  -0.4203
C  0.0444  1.1569  -0.1710
C  -1.4108  0.9929  -0.3193
C  -1.9951  -0.3155  0.0288
C  -1.0370  -1.3778  0.3527
O  -1.4871  -2.4158  0.8250
C  0.4249  -1.3057  0.1591
H  2.6904  -0.6284  0.6762
H  2.1486  1.0231  1.0279
H  2.9540  0.7304  -0.5275
H  1.1118  -0.1593  -1.5213
H  0.3177  1.5795  0.8373
H  0.3852  1.9592  -0.8922
H  -1.7217  1.3067  -1.3599
H  -1.8985  1.7741  0.3400
H  -2.6563  -0.6712  -0.8149
H  -2.7047  -0.2546  0.9071
H  0.7725  -2.1430  -0.4839
H  0.8911  -1.5019  1.1643
*