! b97-3c opt
%maxcore 5000
* xyz 0 1
C  -2.0163  -0.3262  0.0248
C  -0.6904  -0.2816  0.0239
O  0.2107  -1.3252  0.1207
C  1.5004  -0.8163  0.0776
O  2.5743  -1.4383  0.1365
C  1.4024  0.6319  -0.0539
C  0.1222  0.9443  -0.0853
H  -2.5869  0.5847  -0.0592
H  -2.4666  -1.3032  0.1123
H  2.2176  1.3694  -0.1189
H  -0.2674  1.9606  -0.1784
*