! b97-3c opt
%maxcore 5000
* xyz 0 1
C  2.0410  -0.5566  -0.0089
C  0.8571  0.1953  -0.6024
C  -0.2224  -0.7442  -1.0012
C  -1.2090  -1.0643  0.0734
C  -1.8949  0.2585  0.4254
C  -0.7968  1.0835  1.0399
O  -0.9970  1.5255  2.1591
C  0.4304  1.3135  0.2881
H  2.2125  -0.1613  1.0298
H  1.8674  -1.6499  -0.0087
H  2.9757  -0.3786  -0.5544
H  1.2480  0.6736  -1.5492
H  0.2689  -1.6651  -1.4218
H  -0.7908  -0.2698  -1.8440
H  -1.9299  -1.7954  -0.2836
H  -0.6577  -1.3922  0.9825
H  -2.2274  0.7000  -0.5404
H  -2.7442  0.1261  1.0951
H  0.3034  2.2810  -0.2786
H  1.2657  1.5205  0.9999
*