! b97-3c opt
%maxcore 5000
* xyz 0 1
C  2.3395  0.8138  0.0864
C  1.0312  0.1292  -0.1249
C  1.0380  -0.7796  -1.2962
C  0.4879  -0.5696  1.1147
C  -0.0894  0.7776  1.5173
C  -0.1240  1.0833  0.0096
C  -1.3801  0.4772  -0.4774
C  -2.0879  1.0866  -1.3907
C  -1.7880  -0.8188  0.1031
C  -0.6383  -1.4946  0.8129
H  2.6613  1.2317  -0.8978
H  2.2680  1.6943  0.7670
H  3.1413  0.1119  0.4277
H  1.8840  -0.5251  -1.9739
H  1.2727  -1.8163  -0.9195
H  0.0746  -0.8672  -1.8272
H  1.2670  -0.9603  1.7618
H  0.6622  1.3687  2.0725
H  -1.0921  0.7067  1.9584
H  0.0589  2.1242  -0.2357
H  -1.7957  2.0326  -1.8184
H  -3.0041  0.6383  -1.7418
H  -2.1601  -1.4844  -0.7311
H  -2.6861  -0.7056  0.7690
H  -0.3011  -2.4059  0.2367
H  -1.0397  -1.8487  1.7976
*