! b97-3c opt
%maxcore 5000
* xyz 0 1
C  1.9614  -0.2680  0.6030
C  0.5366  -0.2004  0.1887
C  0.0438  1.0228  -0.2192
O  0.8200  2.1788  -0.2566
C  -1.2814  1.0697  -0.6010
C  -2.0775  -0.0596  -0.5751
C  -1.5835  -1.2832  -0.1668
C  -0.2571  -1.3255  0.2144
H  2.0621  0.2392  1.5882
H  2.6296  0.2952  -0.0940
H  2.2756  -1.3240  0.7097
H  1.7871  2.1495  0.0209
H  -1.6977  2.0113  -0.9254
H  -3.1251  -0.0428  -0.8724
H  -2.2116  -2.1687  -0.1475
H  0.1178  -2.2944  0.5332
*