! b97-3c opt
%maxcore 5000
* xyz 0 1
C  2.6581  -0.9612  -0.1181
C  1.3732  -0.3433  0.4139
C  1.4168  1.1520  0.2631
C  0.1357  1.8217  0.0296
C  -0.9277  1.0629  -0.6658
C  -1.0841  -0.3584  -0.1343
C  -2.0926  -1.0936  -0.9828
C  -1.5618  -0.2811  1.3000
C  0.2405  -0.9748  -0.2649
O  0.3840  -1.9683  -0.9113
H  2.4734  -1.5937  -1.0133
H  3.1483  -1.6073  0.6312
H  3.3358  -0.1562  -0.4373
H  1.2764  -0.5990  1.5112
H  1.8669  1.5584  1.2167
H  2.1859  1.3878  -0.5179
H  -0.2795  2.2300  0.9963
H  0.3287  2.7531  -0.5821
H  -0.8164  1.0641  -1.7498
H  -1.9170  1.5600  -0.4495
H  -2.1512  -2.1419  -0.6339
H  -1.7586  -1.1055  -2.0291
H  -3.0889  -0.6247  -0.8731
H  -1.2464  0.6335  1.8173
H  -1.2125  -1.1428  1.9103
H  -2.6870  -0.2715  1.2735
*