! b97-3c opt
%maxcore 5000
* xyz 0 1
C  -1.7160  -0.1057  0.0087
C  -0.2449  0.0669  0.0056
C  0.4369  1.2639  0.0777
O  1.7213  0.9966  0.0475
C  1.9341  -0.2899  -0.0392
C  0.7132  -0.9236  -0.0690
H  -2.1522  0.4656  -0.8397
H  -2.1155  0.2688  0.9897
H  -1.9426  -1.1798  -0.1076
H  -0.0308  2.2597  0.1478
H  2.8830  -0.8176  -0.0833
H  0.5135  -2.0049  -0.1382
*