! b97-3c opt
%maxcore 5000
* xyz 0 1
C  3.3403  0.5037  -0.5290
C  2.0982  -0.0682  0.1278
C  1.2072  1.0733  0.4896
C  -0.0562  0.6736  1.1938
C  -0.7790  -0.2814  0.2758
C  -2.0844  -0.1822  0.0919
C  -2.8134  -1.0987  -0.7968
C  -2.8179  0.8832  0.8066
C  0.0269  -1.2993  -0.3823
O  -0.5226  -2.4276  -0.5856
C  1.4431  -1.0524  -0.8103
H  3.1897  0.6275  -1.6317
H  3.5889  1.5195  -0.1100
H  4.2038  -0.1589  -0.3381
H  2.3682  -0.6219  1.0559
H  1.7766  1.7573  1.1457
H  0.9500  1.6743  -0.4193
H  0.1612  0.2212  2.1668
H  -0.6479  1.6034  1.3448
H  -2.9338  -2.0780  -0.2450
H  -3.8252  -0.6774  -0.9822
H  -2.3126  -1.2431  -1.7784
H  -2.6048  1.8822  0.3756
H  -2.4689  0.8549  1.8650
H  -3.8980  0.6704  0.7374
H  1.9547  -2.0335  -0.7663
H  1.4560  -0.7220  -1.8650
*