! b97-3c opt
%maxcore 5000
* xyz 0 1
C  2.0889  -0.2624  -0.2700
C  0.9608  0.5355  -0.5549
C  0.1060  1.4363  0.2264
C  -1.3243  0.9076  0.0240
C  -1.4564  -0.5445  0.3187
C  -0.3077  -1.4053  -0.2161
C  0.9105  -0.7776  0.3043
H  2.5870  -0.8293  -1.0928
H  2.8859  0.1607  0.4002
H  0.5637  0.4547  -1.6129
H  0.1389  2.4800  -0.0642
H  0.2841  1.3783  1.3281
H  -2.0423  1.4536  0.6342
H  -1.5077  1.0382  -1.0832
H  -2.4290  -0.9156  0.0213
H  -1.3791  -0.6580  1.4414
H  -0.5166  -2.4340  0.1110
H  -0.3777  -1.3820  -1.3418
H  0.8150  -0.6359  1.4263
*