! b97-3c opt
%maxcore 5000
* xyz 0 1
C  1.8375  -0.2027  -0.3278
C  0.8837  -0.6666  0.7409
C  -0.3449  -1.3815  0.3071
C  -1.1853  -0.6454  -0.6752
C  -1.4387  0.7392  -0.0979
C  -0.1373  1.4731  -0.1019
C  1.0086  0.7409  0.4769
H  1.5798  -0.4936  -1.3470
H  2.9384  -0.3130  -0.1092
H  1.3728  -1.1252  1.6470
H  -0.9786  -1.5422  1.2287
H  -0.0437  -2.3667  -0.1093
H  -0.7584  -0.5728  -1.6822
H  -2.1636  -1.1605  -0.7522
H  -2.1712  1.3045  -0.6689
H  -1.7772  0.6102  0.9625
H  0.0825  1.8237  -1.1528
H  -0.3351  2.4351  0.4566
H  1.6309  1.3437  1.2048
*