! b97-3c opt
%maxcore 5000
* xyz 0 1
C  -1.2768  -0.1219  0.1910
C  0.0790  -0.4650  -0.3656
C  1.2346  0.3716  0.0146
O  0.2047  -1.4190  -1.1153
H  -1.9659  -0.0810  -0.6638
H  -1.2496  0.8587  0.6732
H  -1.5608  -0.9266  0.9109
H  1.2695  1.3153  -0.5692
H  1.0984  0.6477  1.0849
H  2.1668  -0.1798  -0.1606
*