! b97-3c opt
%maxcore 5000
* xyz 0 1
C  0.0769  3.5434  1.1753
C  0.0707  2.1282  0.7211
C  1.2352  1.3613  0.6977
C  1.1996  0.0498  0.2711
C  -0.0026  -0.4991  -0.1340
O  0.0076  -1.7882  -0.5448
C  -1.1706  0.2258  -0.1247
C  -1.1046  1.5409  0.3089
C  -2.4518  -0.3353  -0.5469
C  -3.5441  0.7375  -0.4139
C  -2.9060  -1.4965  0.3058
C  -2.4553  -0.7430  -2.0103
C  2.4635  -0.6917  0.2741
C  3.6264  0.1443  0.7648
C  2.4416  -1.9819  1.0324
C  2.7712  -1.0489  -1.1697
H  1.0587  4.0177  0.9941
H  -0.7321  4.0570  0.6210
H  -0.1726  3.5361  2.2676
H  2.1420  1.8530  1.0281
H  -0.6937  -2.3920  -0.8727
H  -2.0002  2.1411  0.3302
H  -3.6670  1.0062  0.6470
H  -4.4896  0.2267  -0.7284
H  -3.3715  1.5793  -1.0891
H  -3.2216  -2.3595  -0.3184
H  -2.0711  -1.8076  0.9993
H  -3.7798  -1.2256  0.9310
H  -1.3969  -0.6672  -2.3807
H  -3.0288  -0.0332  -2.6254
H  -2.7819  -1.7692  -2.1637
H  3.4762  0.5132  1.7940
H  3.7939  1.0401  0.1252
H  4.5480  -0.4680  0.6857
H  1.8970  -1.9313  1.9904
H  3.4984  -2.2112  1.3034
H  2.1112  -2.7953  0.3728
H  2.2958  -2.0291  -1.4163
H  3.8717  -1.1793  -1.2346
H  2.4562  -0.2485  -1.8673
*