! b97-3c opt
%maxcore 5000
* xyz 0 1
C  3.6515  0.2850  1.5857
C  2.7072  0.5750  0.4072
C  1.7104  1.5919  0.8292
C  0.3752  1.5333  0.2229
C  0.0109  0.2821  -0.4880
C  0.7214  -0.9256  0.0206
C  0.2960  -1.2676  1.4095
C  -1.1852  -1.5616  1.4349
C  -1.9773  -0.4045  0.8726
C  -3.4195  -0.7833  0.8001
C  -4.1874  0.3873  0.2930
O  -5.1819  0.8181  0.8336
C  -3.6921  1.0478  -0.9414
C  -2.2087  1.2041  -0.9793
C  -1.4746  -0.0034  -0.4748
C  -1.7108  -1.1376  -1.4466
C  2.2003  -0.7054  -0.0952
C  2.6110  -0.7795  -1.5277
C  3.5359  0.3532  -1.7628
C  3.5746  1.0950  -0.6727
H  4.0183  1.1991  2.0488
H  4.4688  -0.3588  1.1562
H  3.0777  -0.3803  2.2671
H  1.6505  1.5853  1.9448
H  2.1604  2.6033  0.5897
H  0.1927  2.3918  -0.4898
H  -0.4039  1.6982  1.0258
H  0.2775  0.4200  -1.5743
H  0.4585  -1.7819  -0.6351
H  0.8066  -2.2003  1.7480
H  0.4961  -0.5064  2.1637
H  -1.4679  -1.6203  2.5268
H  -1.4366  -2.5284  0.9989
H  -1.8865  0.4257  1.6115
H  -3.6064  -1.6895  0.1870
H  -3.7834  -0.9803  1.8412
H  -4.1518  2.0494  -1.0833
H  -4.0796  0.4251  -1.7991
H  -1.9198  1.3213  -2.0636
H  -1.9331  2.1417  -0.4818
H  -1.6528  -2.1296  -0.9903
H  -0.9213  -1.1173  -2.2533
H  -2.6716  -1.0533  -1.9730
H  2.6791  -1.5910  0.4201
H  3.1982  -1.7086  -1.7672
H  1.7700  -0.7877  -2.2490
H  4.1071  0.5530  -2.6991
H  4.1961  2.0154  -0.5786
*