! b97-3c opt
%maxcore 5000
* xyz 0 1
C  -3.1572  -0.6133  -0.0036
C  -1.7590  -0.0819  0.0883
C  -0.7074  -0.8995  -0.2695
C  0.5820  -0.4025  -0.1822
C  0.8420  0.8786  0.2496
O  2.0819  1.3449  0.3294
C  3.1268  0.6218  0.0052
O  4.2894  1.1253  0.1033
C  2.9707  -0.6744  -0.4389
C  1.6856  -1.1771  -0.5284
C  -0.2202  1.6903  0.6060
C  -1.5100  1.2098  0.5246
H  -3.2623  -1.0299  -1.0149
H  -3.2448  -1.4037  0.7942
H  -3.8494  0.2338  0.1775
H  -0.8735  -1.9190  -0.6159
H  3.8258  -1.2693  -0.7053
H  1.4815  -2.1812  -0.8668
H  0.0292  2.6902  0.9399
H  -2.3309  1.8572  0.8072
*