! b97-3c opt
%maxcore 5000
* xyz 0 1
C  -2.7666  -0.6595  -1.1018
C  -1.9650  -0.0048  -0.0050
C  -2.6420  0.7394  1.0936
C  -0.6351  -0.1043  -0.0362
C  0.1509  0.5448  1.0506
C  1.4155  1.0914  0.3722
C  2.1416  -0.1170  -0.0872
C  3.5678  -0.2688  0.2588
C  1.4668  -1.0041  -0.7897
C  0.0275  -0.8501  -1.1387
H  -3.8391  -0.4138  -0.9380
H  -2.4790  -0.2427  -2.1018
H  -2.5947  -1.7606  -1.0916
H  -3.6956  0.4206  1.1360
H  -2.1857  0.4824  2.0880
H  -2.5312  1.8371  0.8751
H  0.4708  -0.2289  1.7784
H  -0.4131  1.3577  1.5432
H  2.0067  1.7160  1.0573
H  1.0576  1.6359  -0.5251
H  4.0752  0.6988  0.4308
H  3.7272  -0.8705  1.1844
H  4.1295  -0.7465  -0.5937
H  2.0203  -1.8999  -1.1255
H  -0.1020  -0.3452  -2.1196
H  -0.4081  -1.8819  -1.2147
*