! b97-3c opt
%maxcore 5000
* xyz 0 1
C  3.3501  -0.2132  -0.8243
C  2.2400  0.2966  0.0812
C  2.5273  1.7707  0.2627
C  2.3066  -0.3029  1.4249
C  1.1362  -0.8062  1.7326
C  0.1169  -0.6367  0.6821
C  -0.4082  -2.0118  0.3615
C  -1.6160  -2.0600  -0.4986
C  -2.6604  -1.0235  -0.1737
C  -1.9854  0.3247  -0.0633
C  -3.0380  1.3724  0.2349
C  -1.2447  0.6788  -1.3377
C  0.1660  1.1445  -1.0463
C  0.8953  -0.0157  -0.4139
C  -1.0313  0.2369  1.1102
H  4.3215  0.0098  -0.3573
H  3.2109  -1.2543  -1.1292
H  3.2981  0.4210  -1.7466
H  3.4964  1.8331  0.8144
H  2.6111  2.2427  -0.7253
H  1.7838  2.2753  0.9066
H  3.2211  -0.3181  2.0699
H  0.8939  -1.3190  2.6823
H  -0.5755  -2.5376  1.3270
H  0.4038  -2.5821  -0.1498
H  -2.1153  -3.0567  -0.3025
H  -1.3752  -2.0980  -1.5867
H  -3.0578  -1.2693  0.8376
H  -3.4558  -1.0653  -0.9130
H  -2.5559  2.2607  0.7282
H  -3.5383  1.6958  -0.7246
H  -3.8277  0.9799  0.8754
H  -1.2117  -0.1282  -2.0721
H  -1.7622  1.5337  -1.8175
H  0.1826  1.9894  -0.3309
H  0.6319  1.4184  -2.0056
H  1.0060  -0.7754  -1.2450
H  -1.5885  -0.2609  1.9411
H  -0.7517  1.2505  1.3910
*