! b97-3c opt
%maxcore 5000
* xyz 0 1
C  2.1115  0.1150  0.0782
C  0.6602  -0.0655  0.3427
C  -0.0192  -1.0647  -0.5409
C  -1.4859  -0.8165  -0.1719
C  -1.5632  0.6375  0.2391
C  -0.1526  1.1961  0.0431
H  2.4410  1.0440  0.6108
H  2.3655  0.1490  -0.9928
H  2.6631  -0.7133  0.5455
H  0.4912  -0.3685  1.3896
H  0.2700  -2.1084  -0.3253
H  0.0992  -0.8190  -1.6272
H  -1.6903  -1.5030  0.6797
H  -2.1616  -0.9826  -1.0104
H  -2.3196  1.2036  -0.2996
H  -1.7220  0.6491  1.3512
H  -0.0618  1.4318  -1.0321
H  0.0744  2.0154  0.7203
*