! b97-3c opt
%maxcore 5000
* xyz 0 1
C  -2.5618  -0.9331  0.2835
C  -1.1114  -0.7412  0.0891
C  -0.5740  0.5278  0.1068
C  -1.5241  1.6553  0.3286
C  0.7770  0.7382  -0.0720
O  1.2670  2.0294  -0.0459
C  1.6507  -0.3340  -0.2782
C  3.1061  -0.0934  -0.4698
C  1.0868  -1.5914  -0.2913
C  -0.2728  -1.8159  -0.1123
H  -2.8852  -1.9709  0.2084
H  -3.1531  -0.2669  -0.3731
H  -2.7794  -0.6179  1.3468
H  -1.5959  2.2700  -0.6033
H  -1.1006  2.3532  1.1081
H  -2.4876  1.3311  0.7084
H  0.6193  2.7859  0.1038
H  3.2486  0.9877  -0.6532
H  3.6655  -0.3264  0.4602
H  3.5131  -0.7386  -1.2600
H  1.7862  -2.4185  -0.4540
H  -0.6743  -2.8306  -0.1305
*