! b97-3c opt
%maxcore 5000
* xyz 0 1
C  -2.7146  -0.8992  -0.6648
C  -1.5420  -0.1601  -0.2089
C  -1.4828  1.1539  -0.2560
C  -0.2409  1.8844  0.2298
C  0.7131  0.8473  0.6998
O  1.8716  1.2866  1.3118
C  -0.0077  -0.1276  1.6080
C  -0.3785  -0.8933  0.3242
C  0.8948  -0.3178  -0.2514
C  0.8724  0.0140  -1.7039
C  2.1319  -1.0868  0.1274
H  -2.3675  -1.8754  -1.0877
H  -3.3246  -0.3552  -1.4137
H  -3.3353  -1.1817  0.2246
H  -2.2678  1.7941  -0.6235
H  0.1768  2.5003  -0.5961
H  -0.5493  2.4983  1.0938
H  2.1289  0.7085  2.0621
H  0.6108  -0.6943  2.3007
H  -0.9044  0.3099  2.1205
H  -0.4437  -1.9655  0.4263
H  -0.1250  -0.1147  -2.1834
H  1.2798  1.0392  -1.8603
H  1.5556  -0.6734  -2.2455
H  2.1563  -1.4082  1.1760
H  2.9995  -0.3842  -0.0105
H  2.2926  -1.8991  -0.5993
*