! b97-3c opt
%maxcore 5000
* xyz 0 1
C  -2.3556  -1.1066  0.8978
C  -1.1936  -0.3677  0.2498
C  -1.4595  1.1410  0.2219
C  -0.1801  1.7696  -0.3186
C  0.7483  0.6859  -0.7812
C  0.1419  -0.2459  -1.7804
C  -1.1416  -0.7845  -1.2176
C  1.1031  -0.1475  0.4523
C  1.8019  0.7607  1.4604
C  2.0950  -1.2427  0.1012
O  -0.0571  -0.6905  0.9387
H  -1.9878  -1.8610  1.6451
H  -2.9369  -1.6963  0.1572
H  -2.9773  -0.3824  1.4599
H  -2.2342  1.2917  -0.5525
H  -1.7549  1.5332  1.1918
H  0.3065  2.2535  0.5697
H  -0.3666  2.5580  -1.0456
H  1.6535  1.1685  -1.1851
H  0.8364  -1.1115  -1.8935
H  0.0270  0.1835  -2.7925
H  -1.9750  -0.2235  -1.7331
H  -1.2954  -1.8514  -1.3634
H  2.6916  0.2456  1.9147
H  1.1401  1.0069  2.3137
H  2.2222  1.6689  0.9649
H  2.9319  -1.2920  0.8559
H  1.6199  -2.2408  0.1322
H  2.5962  -1.0225  -0.8634
*