! b97-3c opt
%maxcore 5000
* xyz 0 1
C  0.3804  -1.1789  0.4308
C  -0.8683  -0.8681  -0.3727
C  -1.3923  0.4619  0.1849
C  -0.3886  1.4872  -0.2119
C  0.8784  1.1623  -0.2592
C  1.4237  -0.1808  0.0575
H  0.7620  -2.1964  0.2214
H  0.1269  -1.1444  1.5226
H  -1.6241  -1.6569  -0.3181
H  -0.5376  -0.6683  -1.4237
H  -2.4001  0.6637  -0.1953
H  -1.3862  0.3090  1.3006
H  -0.7179  2.4904  -0.4570
H  1.5887  1.9234  -0.5501
H  2.0016  -0.5538  -0.8112
H  2.1533  -0.0503  0.8813
*