! b97-3c opt
%maxcore 5000
* xyz 0 1
C  2.9562  0.9475  1.2269
C  2.2278  0.9036  -0.0591
C  2.7730  -0.1798  -1.0069
C  1.6913  -1.2750  -1.0468
C  0.8634  -0.9288  0.0792
C  -0.5221  -1.2996  0.2373
C  -0.5908  -2.3886  1.3290
C  -1.2102  -1.8895  -0.9434
C  -1.1828  -0.0905  0.8359
C  -0.0088  0.8627  1.1680
C  0.8067  0.6048  -0.0282
C  0.1285  1.0855  -1.2605
C  -1.3109  1.4265  -1.1292
C  -2.0715  0.6728  -0.0822
C  -2.8400  1.6811  0.7884
O  -3.0986  -0.1017  -0.6395
H  3.9739  0.4943  1.1590
H  3.1099  2.0151  1.5416
H  2.4542  0.4537  2.0755
H  2.3982  1.8805  -0.5994
H  3.6965  -0.5626  -0.5324
H  2.9763  0.2106  -2.0026
H  1.2398  -1.3755  -2.0284
H  2.2175  -2.2568  -0.8486
H  1.4379  -1.1050  1.0325
H  -0.2267  -1.9083  2.2481
H  0.1889  -3.1341  1.0143
H  -1.5922  -2.8163  1.3926
H  -1.2933  -1.2690  -1.8273
H  -2.1742  -2.3804  -0.6296
H  -0.5708  -2.7719  -1.2536
H  -1.7146  -0.2970  1.7870
H  -0.3167  1.9014  1.1998
H  0.4036  0.4766  2.1143
H  0.3413  0.4470  -2.1696
H  0.6612  2.0506  -1.5361
H  -1.7971  1.1981  -2.1238
H  -1.4752  2.5388  -1.0136
H  -2.2907  1.9708  1.6808
H  -3.8159  1.2764  1.1277
H  -2.9864  2.6035  0.1593
H  -3.4569  0.3286  -1.4366
*