! b97-3c opt
%maxcore 5000
* xyz 0 1
C  -1.8485  1.1693  -0.7769
C  -1.5165  -0.1101  -0.0977
C  -2.7497  -0.8581  0.4260
C  -0.3652  -0.9528  -0.4605
C  0.6983  -0.5076  -1.4051
C  2.0728  -0.4242  -0.7731
C  1.9835  0.2739  0.5346
C  2.9705  0.3584  1.3992
C  0.6816  0.9112  0.8645
C  -0.3629  -0.1673  0.8280
H  -1.0312  1.6697  -1.2875
H  -2.3209  1.8468  -0.0072
H  -2.6669  1.0098  -1.5361
H  -2.5217  -1.9235  0.5939
H  -2.9648  -0.4022  1.4157
H  -3.5980  -0.6747  -0.2340
H  -0.4820  -2.0712  -0.3605
H  0.4469  0.4335  -1.9569
H  0.7821  -1.2925  -2.2091
H  2.7167  0.1527  -1.4962
H  2.4660  -1.4541  -0.6783
H  3.9225  -0.1170  1.1398
H  2.9044  0.8672  2.3515
H  0.6832  1.3384  1.8810
H  0.5074  1.6957  0.0866
H  -0.4076  -0.7714  1.7580
*