! b97-3c opt
%maxcore 5000
* xyz 0 1
C  -1.8804  0.8092  -1.1399
C  -1.3489  -0.1701  -0.0897
C  -2.0251  0.2321  1.2112
C  -1.6497  -1.5877  -0.4771
C  0.1373  -0.0310  0.0328
C  0.9440  -0.1167  -1.0874
C  2.3165  -0.0107  -0.9951
C  2.9545  0.1861  0.2129
O  4.3385  0.2903  0.2955
C  2.1530  0.2755  1.3292
C  0.7633  0.1684  1.2470
H  -1.1822  1.6959  -1.1126
H  -2.8741  1.1971  -0.8652
H  -1.8562  0.3274  -2.1373
H  -1.5450  1.1987  1.5394
H  -1.9457  -0.5537  1.9687
H  -3.0837  0.4984  1.0014
H  -0.7669  -2.2694  -0.3648
H  -2.4199  -1.9835  0.2320
H  -1.9927  -1.6856  -1.5333
H  0.4306  -0.2688  -2.0229
H  2.9476  -0.0725  -1.8797
H  4.7939  1.1899  0.2198
H  2.6403  0.4345  2.2832
H  0.1511  0.2458  2.1320
*