! b97-3c opt
%maxcore 5000
* xyz 0 1
C  -1.5809  1.5089  -0.7003
C  -1.3333  0.1418  -0.1809
C  -1.5827  -0.8672  -1.3028
C  -2.2490  -0.1919  0.9690
C  0.1048  -0.0097  0.1542
C  1.0129  0.4231  -0.8047
C  2.3728  0.2766  -0.6586
C  2.8586  -0.3270  0.4895
O  4.1981  -0.4876  0.6500
C  1.9770  -0.7708  1.4672
C  0.5985  -0.5973  1.2736
H  -2.6111  1.8696  -0.5326
H  -0.8508  2.2566  -0.2501
H  -1.3226  1.4771  -1.7923
H  -0.9421  -1.7292  -1.1293
H  -1.2512  -0.3579  -2.2412
H  -2.6585  -1.1249  -1.4072
H  -2.2538  0.5198  1.8082
H  -2.0939  -1.2448  1.2586
H  -3.2916  -0.1547  0.5122
H  0.6948  0.9229  -1.7080
H  3.1125  0.5822  -1.4008
H  4.8884  0.0908  1.0576
H  2.3118  -1.2622  2.3686
H  -0.1088  -0.9441  2.0262
*