! b97-3c opt
%maxcore 5000
* xyz 0 1
C  2.5141  -1.1898  -0.1777
C  1.3214  -0.4033  0.2310
C  1.5881  1.0711  0.4107
C  0.4014  1.9052  0.1419
O  0.5544  3.0480  -0.2094
C  -0.9611  1.3621  0.2965
C  -1.1250  -0.0331  -0.2184
C  -1.3980  -0.9520  0.9772
C  -2.2410  -0.1998  -1.1931
C  0.1921  -0.5025  -0.7680
O  0.3362  -0.9148  -1.8856
H  2.8506  -1.8915  0.6422
H  2.3268  -1.8670  -1.0514
H  3.3874  -0.5333  -0.3630
H  0.9408  -0.8010  1.2017
H  2.4150  1.4256  -0.2545
H  1.9270  1.2302  1.4420
H  -1.2012  1.4226  1.3986
H  -1.7105  2.0667  -0.1712
H  -0.9860  -1.9642  0.8112
H  -0.9609  -0.5076  1.9182
H  -2.4963  -0.9557  1.1200
H  -1.8731  -0.3150  -2.2358
H  -2.9696  0.6352  -1.0872
H  -2.8326  -1.1360  -0.9760
*