! b97-3c opt
%maxcore 5000
* xyz 0 1
C  2.5699  -1.3104  -0.1409
C  1.4377  -0.3745  0.0189
C  1.5044  0.8690  -0.4423
C  0.3250  1.7480  -0.2425
O  -0.0728  2.3973  -1.3964
C  -0.7882  1.0288  0.4621
C  -0.1507  0.3495  1.6840
C  0.1750  -0.7907  0.7050
C  -1.0512  -0.3499  -0.0503
C  -2.2886  -0.9281  0.6009
C  -1.0653  -0.5704  -1.5141
H  2.4908  -1.8988  -1.0777
H  2.6976  -1.9377  0.7589
H  3.5165  -0.7155  -0.2294
H  2.4020  1.2069  -0.9447
H  0.6663  2.5618  0.4645
H  0.5703  3.0971  -1.6262
H  -1.6374  1.6623  0.6817
H  0.7282  0.8623  2.0789
H  -0.9483  0.0862  2.4159
H  0.1660  -1.7688  1.1631
H  -2.0278  -1.8159  1.2144
H  -2.7778  -0.2030  1.2831
H  -3.0673  -1.1904  -0.1706
H  -0.8286  -1.6414  -1.7102
H  -2.1217  -0.4409  -1.8700
H  -0.4238  0.0674  -2.1161
*