! b97-3c opt
%maxcore 5000
* xyz 0 1
C  -2.6270  -1.4978  0.9792
C  -2.1818  -0.1129  0.6381
C  -2.5800  0.9733  1.5815
C  -1.4629  0.1032  -0.4574
C  -1.1436  -1.0521  -1.2802
C  -0.4313  -2.2044  -0.6729
C  0.8604  -2.1376  -0.2113
C  1.5396  -3.3031  0.3819
C  1.4112  -0.8305  -0.3397
C  2.6677  -0.1771  -0.2863
C  2.3467  1.2632  0.0274
C  1.3908  2.0547  -0.3786
C  1.4684  3.4783  0.2294
C  0.2602  1.9057  -1.3025
C  -1.0646  1.5119  -0.7430
O  -1.9568  2.3611  -0.4686
H  -3.5175  -1.4470  1.6763
H  -1.8718  -2.0560  1.5650
H  -3.0149  -2.0411  0.0983
H  -2.8833  0.5002  2.5573
H  -1.7363  1.6455  1.8405
H  -3.4821  1.4712  1.2136
H  -0.6899  -0.7722  -2.2747
H  -2.1451  -1.4705  -1.6204
H  -0.8949  -3.2079  -0.5431
H  2.3071  -2.9686  1.0947
H  1.9860  -3.9102  -0.4515
H  0.7967  -3.9248  0.9234
H  0.8882  -0.3094  0.5358
H  1.0822  -0.5452  -1.3578
H  3.2593  -0.1696  -1.2442
H  3.3463  -0.6240  0.4769
H  3.1046  1.6697  0.7416
H  0.7917  3.5246  1.1073
H  2.5205  3.7264  0.4699
H  1.1276  4.2186  -0.4901
H  0.4916  1.3988  -2.2758
H  0.0368  2.9554  -1.7400
*