! b97-3c opt
%maxcore 5000
* xyz 0 1
C  -2.0670  0.2421  0.0314
C  -0.5575  0.2132  0.0397
C  0.1449  -0.8544  -0.2651
C  1.5698  -0.5039  -0.1466
C  1.5693  0.9073  0.2668
O  2.6132  1.5802  0.4755
O  0.2472  1.2948  0.3655
H  -2.4758  -0.3934  -0.7755
H  -2.3953  1.3005  -0.0391
H  -2.4702  -0.1412  1.0030
H  -0.2992  -1.8221  -0.5535
H  1.9879  -1.1406  0.6831
H  2.1327  -0.6823  -1.0852
*