! b97-3c opt
%maxcore 5000
* xyz 0 1
C  2.1718  0.3334  0.2601
C  0.8585  -0.3009  -0.0443
S  -0.0661  -0.7192  1.4902
C  -1.7047  -0.6429  0.6683
C  -1.4936  0.1715  -0.5459
C  -0.1247  0.6346  -0.6343
O  0.2171  1.6900  -1.1407
H  2.9624  -0.4626  0.1258
H  2.2799  0.7116  1.2756
H  2.3426  1.1360  -0.4977
H  0.8988  -1.2130  -0.6312
H  -1.8941  -1.7044  0.3307
H  -2.4851  -0.3181  1.3452
H  -1.7634  -0.3664  -1.4863
H  -2.1993  1.0504  -0.5155
*