! b97-3c opt
%maxcore 5000
* xyz 0 1
C  -2.7670  -2.1562  -0.6437
C  -2.2381  -1.0640  0.2287
C  -2.6670  0.1526  -0.0744
C  -2.2565  1.3823  0.6761
C  -1.2514  2.1039  -0.1612
C  0.1019  2.1398  0.4398
C  0.5332  3.3085  0.8830
C  0.9997  0.9941  0.5854
C  2.0220  1.0275  -0.5381
C  1.9422  -0.4955  -0.4809
C  1.9867  -1.1587  -1.8333
C  2.9336  -0.9968  0.5228
C  0.5219  -0.2989  0.0274
C  0.1207  -1.3030  1.0698
C  -1.3313  -1.4462  1.2922
H  -2.2911  -1.9855  -1.6490
H  -2.4742  -3.1527  -0.3285
H  -3.8630  -2.1279  -0.7381
H  -3.3580  0.3352  -0.9061
H  -3.1794  1.9832  0.8145
H  -1.8978  1.1415  1.6924
H  -1.6327  3.1255  -0.3594
H  -1.1377  1.6385  -1.1735
H  -0.0410  4.2242  0.8303
H  1.5110  3.3762  1.3263
H  1.4861  0.8580  1.5663
H  3.0076  1.4305  -0.2264
H  1.6414  1.4529  -1.4825
H  2.1486  -2.2422  -1.6527
H  2.8201  -0.7961  -2.4602
H  1.0008  -1.0585  -2.3277
H  2.6594  -0.8067  1.5600
H  3.9427  -0.5398  0.3685
H  3.1189  -2.1063  0.4109
H  -0.1445  -0.2343  -0.8554
H  0.6941  -1.1015  2.0088
H  0.4816  -2.2977  0.7244
H  -1.5820  -0.8133  2.1975
H  -1.5615  -2.4931  1.6500
*