! b97-3c opt
%maxcore 5000
* xyz 0 1
C  1.8505  -0.8646  -0.5783
C  1.0553  0.0396  0.3340
O  1.3349  1.3842  0.1713
C  0.1881  2.0817  -0.0806
O  0.0798  3.3341  -0.2800
C  -0.8790  1.0984  -0.0736
O  -2.2289  1.3979  -0.2930
C  -0.3958  -0.1015  0.1666
C  -1.2505  -1.3229  0.2364
H  2.1115  -0.4107  -1.5316
H  1.3431  -1.8346  -0.6325
H  2.8227  -1.0496  -0.0352
H  1.2956  -0.1968  1.4224
H  -2.9035  1.4615  0.4545
H  -2.1780  -1.2180  -0.3505
H  -1.5311  -1.5920  1.2634
H  -0.7148  -2.2068  -0.1935
*