! b97-3c opt
%maxcore 5000
* xyz 0 1
C  -2.0228  0.2911  -0.5417
C  -0.8169  0.6806  0.2854
O  -0.2780  1.9138  -0.0889
C  1.0469  1.7446  -0.4112
O  1.8953  2.6183  -0.8010
C  1.3686  0.3386  -0.2345
O  2.6355  -0.2469  -0.4635
C  0.2846  -0.2743  0.1695
C  0.2261  -1.7395  0.4589
H  -2.2319  -0.7782  -0.4278
H  -1.8939  0.6179  -1.5878
H  -2.9032  0.8237  -0.0770
H  -1.1103  0.7633  1.3778
H  3.2564  -0.4616  0.3290
H  1.0468  -2.2705  -0.0674
H  0.2503  -1.8787  1.5527
H  -0.7533  -2.1422  0.0797
*