! b97-3c opt
%maxcore 5000
* xyz 0 1
C  -3.1946  -2.5441  -0.3467
C  -2.2938  -1.4426  0.1543
C  -2.7549  -0.2110  0.2515
C  -1.9601  0.9486  0.7307
C  -1.3719  1.6857  -0.4547
C  -0.0683  2.3297  -0.1565
C  -0.0221  3.8375  -0.3105
C  1.0245  1.7261  0.2201
C  1.1806  0.2463  0.4284
C  0.9112  -0.5398  -0.7425
C  0.0393  -1.7380  -0.6413
C  -0.8987  -1.7689  0.5291
C  2.3047  -0.4925  -0.2261
C  3.3353  0.2851  -1.0383
C  2.9002  -1.6462  0.5227
H  -3.0745  -3.3732  0.3830
H  -4.2530  -2.2463  -0.3341
H  -2.9169  -2.8219  -1.3780
H  -3.8041  0.0142  -0.0382
H  -1.2239  0.6927  1.5012
H  -2.6967  1.6238  1.2715
H  -1.3528  1.0038  -1.3245
H  -2.1490  2.4545  -0.7328
H  0.4434  4.0244  -1.2899
H  0.5854  4.2656  0.5362
H  -1.0255  4.2783  -0.2217
H  1.9153  2.3612  0.4020
H  1.0390  -0.0173  1.4890
H  0.7718  0.0393  -1.7052
H  0.6944  -2.6344  -0.6687
H  -0.6194  -1.8544  -1.5497
H  -0.5982  -1.2092  1.4021
H  -0.9045  -2.8529  0.8745
H  3.2309  1.3606  -0.9319
H  4.3748  0.0119  -0.7632
H  3.2229  -0.0157  -2.1184
H  2.6885  -1.4604  1.6144
H  2.5162  -2.6280  0.2442
H  4.0042  -1.6922  0.4511
*