! b97-3c opt
%maxcore 5000
* xyz 0 1
C  2.1082  -0.0942  -0.0000
C  0.6174  -0.1213  -0.0326
C  -0.1347  0.9664  0.3537
O  0.5017  2.1194  0.7850
C  -1.5243  0.8812  0.3015
C  -2.1950  -0.2445  -0.1203
C  -1.4305  -1.3288  -0.5053
C  -0.0497  -1.2484  -0.4549
H  2.4817  0.8538  -0.4583
H  2.4231  -0.0972  1.0490
H  2.4826  -0.9639  -0.5853
H  1.5077  2.1276  0.8032
H  -2.0834  1.7484  0.6102
H  -3.2840  -0.2572  -0.1415
H  -1.9590  -2.2153  -0.8375
H  0.5380  -2.1260  -0.7669
*