! b97-3c opt
%maxcore 5000
* xyz 0 1
C  2.1569  -0.1916  -1.2606
C  1.2853  0.2745  -0.1127
C  2.1442  1.1078  0.8041
O  0.2260  0.9684  -0.6396
C  -1.0070  0.6129  -0.1807
C  -2.0216  1.6044  -0.7342
C  -1.0790  0.5790  1.3534
C  -0.1316  -0.5366  1.7636
C  0.7351  -0.9601  0.5796
C  -0.1570  -1.6545  -0.4352
C  -1.4163  -0.8023  -0.5861
O  -1.9525  -0.8622  -1.8434
H  1.7786  0.1953  -2.2472
H  3.1986  0.2248  -1.1870
H  2.2895  -1.2939  -1.2731
H  1.8063  1.1391  1.8361
H  3.1579  0.6090  0.8125
H  2.2872  2.0991  0.3621
H  -1.5197  2.4151  -1.3231
H  -2.5392  2.1130  0.0967
H  -2.7234  1.1175  -1.4524
H  -2.1216  0.2238  1.5960
H  -0.8427  1.5397  1.7997
H  -0.6944  -1.4614  2.0641
H  0.4488  -0.1736  2.6085
H  1.5128  -1.6278  0.9581
H  0.2940  -1.6814  -1.4459
H  -0.3895  -2.6930  -0.1611
H  -2.1492  -1.2304  0.1353
H  -2.5765  -1.6544  -1.8877
*