! b97-3c opt
%maxcore 5000
* xyz 0 1
C  2.2351  -0.0410  0.9416
C  1.2645  -0.2775  -0.1848
C  2.1017  -0.6381  -1.3941
O  0.5758  0.9039  -0.5289
C  -0.6711  0.9744  0.0452
C  -1.1987  2.3742  -0.1033
C  -0.6553  0.5338  1.5112
C  -0.4050  -0.9683  1.4579
C  0.2329  -1.3143  0.1278
C  -0.8605  -1.2410  -0.9289
C  -1.6684  0.0130  -0.6077
O  -2.2502  0.5703  -1.7181
H  2.4551  1.0482  1.0670
H  3.2451  -0.5025  0.7341
H  1.9166  -0.4435  1.9031
H  2.9167  -1.3458  -1.0959
H  1.5471  -1.1015  -2.1999
H  2.6352  0.3056  -1.6872
H  -0.3684  3.0721  0.2004
H  -1.3600  2.5514  -1.1837
H  -2.1252  2.5670  0.4523
H  0.0696  1.0759  2.1024
H  -1.6632  0.6934  1.9098
H  -1.4027  -1.4994  1.4553
H  0.1358  -1.3465  2.3206
H  0.6390  -2.3406  0.2185
H  -1.4955  -2.1517  -0.9278
H  -0.4761  -1.1139  -1.9401
H  -2.4481  -0.3101  0.1147
H  -2.9218  -0.0477  -2.0616
*