! b97-3c opt
%maxcore 5000
* xyz 0 1
O  2.2173  -1.4539  -0.6207
C  1.2300  -0.7475  -0.3158
C  -0.1055  -1.3803  -0.2197
C  -0.9537  -0.4338  0.6377
C  -0.9948  0.8667  -0.1353
C  0.3351  1.4963  0.0373
C  1.3852  0.6755  -0.0583
H  -0.0858  -2.3898  0.1933
H  -0.5520  -1.3642  -1.2497
H  -0.3400  -0.2787  1.5707
H  -1.9378  -0.8552  0.8357
H  -1.8193  1.4927  0.2562
H  -1.1460  0.6758  -1.2273
H  0.4130  2.5521  0.2267
H  2.3542  1.1444  0.0692
*