! b97-3c opt
%maxcore 5000
* xyz 0 1
O  1.0643  2.3751  -0.6473
C  0.6325  1.3103  -0.1246
C  -0.7832  1.1162  0.2490
C  -1.1845  -0.3363  0.2853
C  -0.2293  -1.2011  -0.4668
C  1.1816  -1.0110  -0.0503
C  1.5856  0.2392  0.1126
H  -1.4751  1.7289  -0.3629
H  -0.9182  1.4985  1.3033
H  -1.3156  -0.7310  1.3088
H  -2.1748  -0.4108  -0.2137
H  -0.3033  -0.9138  -1.5416
H  -0.5560  -2.2557  -0.3859
H  1.8647  -1.8331  0.1180
H  2.6113  0.4247  0.4161
*