! b97-3c opt
%maxcore 5000
* xyz 0 1
C  2.3824  -0.1580  -0.1335
C  0.8987  -0.0893  -0.2605
C  0.3237  1.1738  0.3938
C  -1.0435  1.3417  -0.1871
C  -1.8074  0.1031  -0.4022
C  -1.2731  -1.1604  0.1372
C  0.1793  -1.2161  0.4299
H  2.7630  -0.8865  -0.8764
H  2.7893  0.8392  -0.4560
H  2.7337  -0.3650  0.8917
H  0.6299  -0.0969  -1.3332
H  0.1806  0.9806  1.4970
H  0.9628  2.0410  0.2041
H  -0.9119  1.9248  -1.1479
H  -1.5887  2.0714  0.4824
H  -2.8391  0.2485  0.0394
H  -2.0210  -0.0044  -1.5078
H  -1.4945  -1.9963  -0.5934
H  -1.8290  -1.4898  1.0657
H  0.6322  -2.2107  0.2235
H  0.3327  -1.0506  1.5335
*