! b97-3c opt
%maxcore 5000
* xyz 0 1
C  1.9688  0.6021  0.5394
C  1.0453  -0.1158  -0.4418
C  0.4370  -1.3454  0.1516
C  -1.0673  -1.3524  0.1138
C  -1.6639  -0.0514  0.5555
C  -1.1163  1.1368  -0.1774
C  0.0744  0.8466  -1.0206
H  2.3616  -0.1050  1.3091
H  1.4813  1.4881  0.9920
H  2.8717  0.9912  -0.0018
H  1.7156  -0.4611  -1.2835
H  0.7666  -2.2919  -0.3635
H  0.7564  -1.4874  1.2160
H  -1.4572  -1.6035  -0.8973
H  -1.4089  -2.1461  0.8035
H  -2.7615  -0.1040  0.3266
H  -1.6001  0.1005  1.6588
H  -1.8906  1.6104  -0.8500
H  -0.8817  1.9439  0.5691
H  0.6208  1.8237  -1.1694
H  -0.2518  0.5206  -2.0300
*