! b97-3c opt
%maxcore 5000
* xyz 0 1
C  2.7462  -0.8212  0.4551
C  1.4464  -0.1979  0.0966
C  0.3362  -0.8424  0.4260
C  -0.9777  -0.2608  0.0897
C  -2.0644  -0.9391  0.9102
C  -1.3462  -0.4954  -1.3747
C  -0.9977  1.2380  0.3000
C  0.2739  1.8753  -0.1215
O  0.2988  3.1092  -0.0434
C  1.4552  1.1092  -0.6092
H  3.5216  -0.6255  -0.3197
H  3.0464  -0.3741  1.4347
H  2.6147  -1.9219  0.6202
H  0.3607  -1.8147  0.9513
H  -1.6148  -1.7537  1.5042
H  -2.5451  -0.1574  1.5325
H  -2.8545  -1.3859  0.2927
H  -1.5066  -1.5630  -1.5680
H  -2.3304  0.0226  -1.5232
H  -0.6399  -0.0468  -2.0698
H  -1.2371  1.4090  1.3661
H  -1.8210  1.7045  -0.3019
H  1.4823  1.0120  -1.7087
H  2.3533  1.7199  -0.3391
*