! b97-3c opt
%maxcore 5000
* xyz 0 1
O  2.1418  1.3321  0.3065
C  1.1221  0.6948  0.0225
C  1.0282  -0.7788  0.0362
C  -0.4469  -1.0868  -0.0005
C  -1.1349  0.2346  0.3464
C  -0.2050  1.2114  -0.3851
H  1.5315  -1.2664  -0.7979
H  1.4533  -1.1156  1.0203
H  -0.7299  -1.8440  0.7404
H  -0.7690  -1.3696  -1.0347
H  -1.1411  0.4164  1.4194
H  -2.1316  0.3133  -0.1326
H  -0.3874  2.2510  -0.0899
H  -0.3312  1.0077  -1.4510
*