! b97-3c opt
%maxcore 5000
* xyz 0 1
C  -2.3653  -0.0350  -0.0336
C  -0.8797  0.1055  -0.0060
C  -0.0489  -0.9476  -0.3285
C  1.3267  -0.8421  -0.3103
O  2.1626  -1.9073  -0.6365
C  1.8531  0.3816  0.0500
C  1.0236  1.4547  0.3785
C  -0.3522  1.3291  0.3543
H  -2.6758  -1.0588  -0.2825
H  -2.7092  0.6019  -0.9002
H  -2.8188  0.3443  0.9054
H  -0.4539  -1.9195  -0.6148
H  2.4882  -2.5645  0.0852
H  2.9349  0.4727  0.0668
H  1.4677  2.3964  0.6554
H  -0.9531  2.1888  0.6168
*