! b97-3c opt
%maxcore 5000
* xyz 0 1
C  3.9249  -0.0993  -0.3753
C  2.5574  -0.4458  0.1063
C  1.8085  0.8818  0.3183
C  0.4156  0.4183  0.4180
C  -0.6568  1.3453  0.0441
C  -0.3169  2.4423  -0.9040
C  -1.2245  1.9824  1.2996
C  -1.6510  0.4294  -0.6390
C  -0.6960  -0.4157  -1.4931
C  0.3137  -0.8202  -0.4527
C  1.6861  -1.0420  -1.0018
C  -0.2379  -1.9966  0.2977
C  -1.7429  -1.9367  0.2675
O  -2.1881  -2.6767  1.3870
C  -2.2752  -0.5482  0.3107
C  -3.2310  -0.2488  1.1430
H  4.3403  0.6696  0.3404
H  3.8365  0.4297  -1.3425
H  4.6197  -0.9612  -0.4061
H  2.5304  -1.0540  1.0112
H  2.1275  1.3152  1.2874
H  2.0684  1.4968  -0.5387
H  0.2387  0.0631  1.4752
H  -0.3900  2.1633  -1.9761
H  -1.1059  3.2431  -0.7735
H  0.6376  2.9371  -0.7365
H  -2.1464  2.5692  1.0946
H  -0.4612  2.7623  1.5951
H  -1.2914  1.2990  2.1407
H  -2.3907  0.9561  -1.2425
H  -0.2283  0.1546  -2.2888
H  -1.2210  -1.2741  -1.9551
H  1.8884  -0.4751  -1.9319
H  1.9189  -2.1149  -1.0843
H  0.1822  -2.1194  1.3064
H  0.0492  -2.9134  -0.2945
H  -2.1565  -2.4935  -0.6145
H  -2.2271  -3.6369  1.1693
H  -3.6829  0.7355  1.2448
H  -3.6223  -1.0217  1.7937
*