! b97-3c opt
%maxcore 5000
* xyz 0 1
C  1.3669  -0.1185  0.3881
C  0.6559  1.1689  0.5558
O  -0.6447  1.0781  0.9856
C  -1.3203  0.1138  0.2619
C  -0.6815  -1.2214  0.3944
O  0.6550  -1.2500  0.5556
H  2.2215  -0.1322  1.1295
H  1.8944  -0.1302  -0.6112
H  1.1838  1.8650  1.2703
H  0.6444  1.7362  -0.4132
H  -1.4899  0.4108  -0.8058
H  -2.3617  0.0713  0.6993
H  -0.9721  -1.8519  -0.4903
H  -1.1517  -1.7399  1.2814
*