! b97-3c opt
%maxcore 5000
* xyz 0 1
C  0.4871  0.7804  0.4329
C  -0.6724  0.5499  -0.5252
C  -1.3132  -0.7550  -0.0408
S  0.2119  -1.7726  0.1052
C  1.4174  -0.3888  0.1719
H  0.9988  1.7025  0.0654
H  0.1777  0.8705  1.4711
H  -1.3671  1.3790  -0.5480
H  -0.2011  0.3089  -1.5093
H  -1.9309  -1.2075  -0.8224
H  -1.7983  -0.6426  0.9330
H  1.9314  -0.2472  -0.7758
H  2.0585  -0.5775  1.0420
*