! b97-3c opt
%maxcore 5000
* xyz 0 1
O  -3.0993  1.8942  -0.5630
C  -2.1490  1.2384  -0.0920
C  -2.3198  -0.1572  0.4541
C  -1.2780  -1.0353  -0.1831
C  0.0677  -0.4566  -0.1056
C  1.2041  -1.2830  -0.1090
C  2.4629  -0.7488  -0.0433
C  2.6833  0.6099  0.0288
C  1.5595  1.4061  0.0313
C  0.2615  0.8797  -0.0352
O  -0.8413  1.7378  -0.0280
H  -3.3141  -0.4976  0.1110
H  -2.2037  -0.1682  1.5538
H  -1.2853  -2.0429  0.2810
H  -1.5463  -1.1305  -1.2574
H  1.0850  -2.3485  -0.1639
H  3.3683  -1.3745  -0.0445
H  3.6877  1.0088  0.0798
H  1.6568  2.4682  0.0853
*