! b97-3c opt
%maxcore 5000
* xyz 0 1
O  -3.3226  -1.0942  -0.9594
C  -2.3336  -0.6142  -0.3574
C  -2.1942  0.8521  -0.1660
C  -0.8593  1.2271  -0.7718
C  0.2161  0.3730  -0.2092
C  1.5329  0.8439  -0.1168
C  2.5287  0.0600  0.3987
C  2.2987  -1.2224  0.8516
C  1.0086  -1.6976  0.7665
C  -0.0066  -0.9084  0.2449
O  -1.3193  -1.4015  0.1625
H  -2.1256  1.0249  0.9293
H  -3.0041  1.4298  -0.6206
H  -0.9599  1.0158  -1.8764
H  -0.6251  2.3061  -0.6226
H  1.7042  1.8538  -0.4755
H  3.5432  0.4441  0.4616
H  3.1261  -1.7950  1.2490
H  0.7915  -2.6973  1.1116
*