! b97-3c opt
%maxcore 5000
* xyz 0 1
C  -2.2222  -1.1906  -0.5959
C  -1.4743  0.0500  -0.1519
C  -2.1843  1.2763  -0.6179
C  -1.4711  0.0456  1.3597
C  -0.0675  -0.0668  -0.6475
C  0.8102  1.0790  -0.2948
C  2.1669  0.7220  -0.9285
C  2.7629  -0.3257  -0.0195
O  2.9475  0.2866  1.2246
C  1.7950  -1.4238  0.1800
C  0.5108  -1.3163  -0.1013
H  -3.1936  -0.9659  -1.0454
H  -2.3673  -1.9056  0.2336
H  -1.6384  -1.7555  -1.3798
H  -3.2414  1.2050  -0.2750
H  -1.7623  2.1950  -0.2052
H  -2.1892  1.3770  -1.7203
H  -0.7068  0.6932  1.7932
H  -1.3336  -1.0332  1.6605
H  -2.5044  0.2982  1.6997
H  -0.0642  -0.1506  -1.7731
H  0.9668  1.2453  0.7663
H  0.4546  2.0316  -0.7515
H  2.7963  1.6073  -1.0361
H  1.9818  0.2243  -1.9189
H  3.7352  -0.7016  -0.4285
H  3.5255  1.0793  1.1761
H  2.1423  -2.4005  0.5867
H  -0.1755  -2.1795  0.0698
*