! b97-3c opt
%maxcore 5000
* xyz 0 1
C  -2.6204  -2.2156  0.0506
C  -1.3547  -1.4489  -0.1858
C  -0.1159  -2.2111  0.2287
C  0.9353  -2.0169  -0.7739
C  1.2971  -0.7128  -1.2752
C  0.8011  0.5431  -0.9204
C  -0.3702  0.7362  -0.0784
C  -0.8491  1.9456  0.2218
C  -0.2397  3.2384  -0.2704
C  -2.0271  1.8957  1.0778
C  -2.6247  0.5402  0.7078
C  -1.3089  -0.2084  0.6364
C  2.1424  0.1702  -0.3258
C  2.2182  -0.2688  1.1149
C  3.4004  0.8169  -0.8646
H  -2.9512  -2.0755  1.1083
H  -2.5314  -3.2896  -0.1866
H  -3.4041  -1.7448  -0.6086
H  -1.3010  -1.2057  -1.2716
H  0.1630  -2.0126  1.2864
H  -0.4251  -3.2989  0.2320
H  1.8735  -2.5161  -0.3696
H  0.6736  -2.7172  -1.6340
H  1.8401  -0.8025  -2.2795
H  0.9178  1.3753  -1.6892
H  -0.2563  3.2638  -1.3946
H  -0.7874  4.1085  0.0703
H  0.8191  3.3072  0.0190
H  -2.7924  2.6508  0.8086
H  -1.7912  1.9051  2.1572
H  -3.2585  0.1315  1.5117
H  -3.0687  0.5400  -0.2846
H  -1.0015  -0.4127  1.6609
H  2.4679  -1.3663  1.2036
H  3.0978  0.2329  1.5998
H  1.3518  0.0238  1.7171
H  3.1344  1.8869  -1.0780
H  4.2008  0.8296  -0.1194
H  3.7452  0.3830  -1.8027
*