! b97-3c opt
%maxcore 5000
* xyz 0 1
C  0.2204  3.7230  0.2495
C  0.1497  2.2238  0.1524
C  -1.0523  1.5827  0.0211
C  -1.1840  0.2047  -0.0733
C  -0.0254  -0.5293  -0.0296
O  -0.0490  -1.8888  -0.1157
C  1.2371  0.0727  0.1040
C  1.2995  1.4444  0.1928
C  2.4701  -0.7021  0.1507
C  2.5383  -1.6848  1.2936
C  2.7181  -1.4713  -1.1282
C  3.6350  0.2436  0.3199
C  -2.5363  -0.3943  -0.2069
C  -2.8793  -1.3327  0.9303
C  -3.5665  0.7134  -0.1559
C  -2.6527  -1.0758  -1.5491
H  -0.6937  4.0362  0.8012
H  0.1923  4.1230  -0.8057
H  1.1513  4.0526  0.7218
H  -1.9532  2.2080  -0.0097
H  -0.8109  -2.5107  -0.2161
H  2.2299  2.0050  0.2984
H  3.6309  -1.9101  1.4427
H  2.0659  -2.6537  1.0596
H  2.1921  -1.2508  2.2475
H  2.2469  -2.4743  -1.1041
H  3.8136  -1.6346  -1.1959
H  2.4343  -0.8767  -2.0208
H  3.5395  0.8053  1.2741
H  3.7300  0.9407  -0.5516
H  4.5954  -0.3424  0.4430
H  -2.0356  -1.3590  1.6230
H  -3.1016  -2.3398  0.4777
H  -3.8048  -1.0519  1.4702
H  -3.5177  1.3882  -1.0300
H  -4.5630  0.2122  -0.2092
H  -3.5498  1.2431  0.8156
H  -3.1582  -2.0710  -1.4577
H  -1.6442  -1.2029  -2.0386
H  -3.3120  -0.4656  -2.1909
*