! b97-3c opt
%maxcore 5000
* xyz 0 1
C  4.1932  -0.0434  -0.3475
C  2.7107  0.0865  -0.2818
C  2.0348  0.4212  -1.3573
C  0.5564  0.5723  -1.3776
C  -0.1313  0.1754  -0.1266
C  0.7590  0.6608  1.0267
C  2.0230  -0.1663  0.9948
C  -0.2473  -1.2967  0.0227
C  0.2282  -2.1721  -0.8448
C  -0.9512  -1.7923  1.2406
C  -2.3767  -1.3256  1.1550
C  -2.5917  -0.2815  0.0976
C  -1.5093  0.7512  0.0344
C  -1.6285  1.6267  1.2721
C  -1.8792  1.6527  -1.1484
H  4.6314  0.7713  0.2628
H  4.5409  -0.0089  -1.4069
H  4.4861  -1.0087  0.1377
H  2.6117  0.5976  -2.2964
H  0.2000  -0.0212  -2.2735
H  0.3695  1.6253  -1.6822
H  1.0727  1.7167  0.8386
H  0.2837  0.5143  2.0007
H  1.7884  -1.2617  1.1145
H  2.6587  0.0899  1.8784
H  0.7546  -1.8899  -1.7586
H  0.0863  -3.2274  -0.6350
H  -0.5079  -1.3769  2.1770
H  -0.8503  -2.8947  1.3222
H  -2.7872  -1.0069  2.1421
H  -2.9893  -2.2114  0.8580
H  -3.5379  0.2471  0.3487
H  -2.7341  -0.7196  -0.9195
H  -0.8229  2.3976  1.3035
H  -1.7014  1.0396  2.2003
H  -2.6175  2.1550  1.1719
H  -2.9722  1.9003  -1.0083
H  -1.3383  2.6000  -1.1311
H  -1.8153  1.1035  -2.0954
*