! b97-3c opt
%maxcore 5000
* xyz 0 1
O  3.2087  -2.0683  0.0440
C  2.2467  -1.2275  0.0372
O  1.0002  -1.6372  -0.0152
C  -0.0281  -0.8147  -0.0246
C  0.1383  0.5541  0.0206
C  -0.9417  1.4105  0.0105
C  -2.2383  0.9392  -0.0454
C  -2.4138  -0.4286  -0.0909
C  -1.3350  -1.2893  -0.0809
C  1.4545  1.0018  0.0764
C  2.5156  0.1218  0.0853
H  -0.7700  2.4839  0.0473
H  -3.0880  1.6187  -0.0532
H  -3.4243  -0.8205  -0.1351
H  -1.4532  -2.3801  -0.1165
H  1.5910  2.0723  0.1120
H  3.5373  0.4637  0.1284
*