! b97-3c opt
%maxcore 5000
* xyz 0 1
O  3.5136  -1.4435  -0.1581
C  2.4188  -0.7897  -0.0739
O  1.2609  -1.3933  -0.2068
C  0.1073  -0.8161  -0.1372
C  0.0762  0.5579  0.0975
C  -1.1434  1.1863  0.1743
C  -2.3338  0.5051  0.0273
C  -2.3203  -0.8550  -0.2055
C  -1.0993  -1.4982  -0.2847
C  1.2658  1.2762  0.2509
C  2.4243  0.5702  0.1593
H  -1.1936  2.2495  0.3552
H  -3.2880  1.0131  0.0901
H  -3.2383  -1.4168  -0.3251
H  -1.0070  -2.5668  -0.4655
H  1.1880  2.3367  0.4307
H  3.3688  1.0845  0.2715
*