! b97-3c opt
%maxcore 5000
* xyz 0 1
C  -2.2626  -0.4496  -0.0442
C  -0.7560  -0.4445  0.0108
C  -0.0769  0.7396  0.0515
C  -0.8275  2.0284  0.0415
C  1.3024  0.7239  0.1016
C  1.9766  -0.4804  0.1100
O  3.3630  -0.4501  0.1610
C  1.3189  -1.6922  0.0697
C  -0.0593  -1.6395  0.0202
H  -2.6701  -0.1651  0.9478
H  -2.6378  0.3047  -0.7659
H  -2.5820  -1.4729  -0.3115
H  -1.3125  2.1212  -0.9505
H  -1.5741  1.9602  0.8735
H  -0.1221  2.8643  0.2029
H  1.8327  1.6817  0.1339
H  3.8687  -0.4277  -0.7157
H  1.8654  -2.6480  0.0768
H  -0.6469  -2.5540  -0.0136
*