! b97-3c opt
%maxcore 5000
* xyz 0 1
C  -2.7772  -0.6189  0.1815
C  -1.3773  -0.0782  0.0487
C  -0.2959  -0.9172  0.1783
C  0.9914  -0.4476  0.0612
C  2.1806  -1.3399  0.1982
C  1.1960  0.8792  -0.1889
O  2.5180  1.3595  -0.3088
C  0.1205  1.7293  -0.3207
C  -1.1741  1.2674  -0.2049
H  -3.2901  -0.5654  -0.7928
H  -3.3013  0.1013  0.8520
H  -2.7067  -1.6301  0.6055
H  -0.4249  -1.9855  0.3789
H  1.8567  -2.3998  0.3698
H  2.7212  -1.3452  -0.7662
H  2.8314  -1.0703  1.0300
H  2.6561  2.3512  -0.4954
H  0.3011  2.7907  -0.5212
H  -2.0253  1.9196  -0.3055
*