! b97-3c opt
%maxcore 5000
* xyz 0 1
C  4.1116  -0.5275  -0.0786
C  2.6305  -0.4035  -0.0555
C  1.9958  0.8000  0.1584
C  0.6188  0.9266  0.1820
C  -0.1553  -0.1902  -0.0155
C  0.4509  -1.4407  -0.2376
C  1.8248  -1.4982  -0.2489
C  -1.6243  -0.0993  -0.0016
C  -2.2355  -1.0999  0.9767
C  -2.0648  -0.5840  -1.3961
C  -2.1814  1.2397  0.2475
C  -1.2387  2.3421  0.4411
C  0.0537  2.2703  0.4240
H  4.6067  0.4013  0.1881
H  4.4574  -1.3137  0.6547
H  4.4716  -0.8526  -1.0774
H  2.6085  1.6814  0.3142
H  -0.1881  -2.3010  -0.3897
H  2.3286  -2.4406  -0.4163
H  -3.2825  -0.7969  1.1908
H  -2.2796  -2.1155  0.5603
H  -1.6907  -1.0838  1.9513
H  -1.3399  -0.2183  -2.1654
H  -2.1377  -1.6871  -1.3693
H  -3.0397  -0.1375  -1.6153
H  -2.9001  1.5002  -0.5733
H  -2.8524  1.1976  1.1622
H  -1.6817  3.3273  0.6184
H  0.7336  3.1036  0.5707
*