! b97-3c opt
%maxcore 5000
* xyz 0 1
O  -1.8797  -1.7487  -0.3181
C  -0.8753  -0.8232  -0.4431
C  0.4276  -1.2991  0.2116
C  1.4903  -0.3392  -0.3247
C  1.1588  1.0218  0.2289
C  -0.1934  1.5062  -0.2759
C  -1.2119  0.4940  0.2671
H  -2.3081  -1.6720  0.5756
H  -0.6755  -0.5243  -1.5027
H  0.3800  -1.1212  1.3068
H  0.6493  -2.3431  -0.0194
H  2.4812  -0.6235  0.0934
H  1.4533  -0.3767  -1.4249
H  1.0265  0.8857  1.3366
H  1.9555  1.7579  0.0939
H  -0.2368  1.5717  -1.3729
H  -0.4344  2.4599  0.2050
H  -0.9856  0.3384  1.3225
H  -2.2219  0.8353  0.0403
*