! b97-3c opt
%maxcore 5000
* xyz 0 1
C  0.3231  -0.8176  1.2078
C  -0.0094  0.0598  0.0460
C  -1.3663  -0.2481  -0.5573
C  1.0961  -0.1311  -0.9961
C  -0.0614  1.4971  0.4691
O  -0.3532  2.4887  -0.4469
O  0.1636  1.7797  1.6628
H  1.2154  -1.4552  1.0369
H  -0.5222  -1.5125  1.3789
H  0.5437  -0.1883  2.0916
H  -1.5410  -1.3356  -0.6254
H  -2.1617  0.2422  0.0351
H  -1.3931  0.2393  -1.5693
H  0.6753  -0.7608  -1.8206
H  1.9482  -0.7080  -0.5826
H  1.4430  0.8502  -1.3299
*