! b97-3c opt
%maxcore 5000
* xyz 0 1
C  -0.9751  0.4006  -1.0715
C  0.0973  0.0190  -0.0856
C  -0.5538  -1.0007  0.8551
C  0.5573  1.1659  0.7464
C  1.2484  -0.6546  -0.7286
O  2.2899  -1.0449  0.1017
O  1.3448  -0.8919  -1.9474
H  -1.3872  -0.5603  -1.4819
H  -1.8103  0.8410  -0.4837
H  -0.6281  1.0779  -1.8657
H  0.1890  -1.4192  1.5310
H  -1.3842  -0.4718  1.3506
H  -1.0122  -1.7624  0.1779
H  1.3094  1.7707  0.1919
H  -0.3292  1.7744  1.0355
H  1.0440  0.7563  1.6740
*