! b97-3c opt
%maxcore 5000
* xyz 0 1
C  1.0038  -0.9757  -0.0055
C  1.3424  0.3723  -0.0325
C  0.3290  1.3083  -0.0262
C  -1.0059  0.9761  0.0055
C  -1.3409  -0.3735  0.0325
C  -0.3342  -1.3155  0.0264
H  1.8094  -1.6929  -0.0109
H  2.3630  0.6926  -0.0577
H  0.5707  2.3628  -0.0468
H  -1.8119  1.6963  0.0109
H  -2.3647  -0.6771  0.0576
H  -0.5607  -2.3738  0.0468
*