! b97-3c opt
%maxcore 5000
* xyz 0 1
C  -1.4897  -0.0014  -0.4333
C  -0.8421  1.2318  0.0696
C  0.4402  1.5242  0.2349
C  1.5527  0.6181  -0.0681
C  1.5831  -0.7271  -0.0536
C  0.3838  -1.5230  0.3034
C  -0.8849  -1.1995  0.1362
H  -2.5786  0.0556  -0.2133
H  -1.3432  0.0154  -1.5577
H  -1.5391  2.0527  0.3582
H  0.6958  2.5208  0.6248
H  2.4808  1.1142  -0.3406
H  2.4852  -1.2195  -0.3024
H  0.6319  -2.4899  0.7516
H  -1.5759  -1.9724  0.4903
*