! b97-3c opt
%maxcore 5000
* xyz 0 1
C  -1.8462  -1.4579  -0.3815
C  -1.1506  -0.1845  -0.0693
C  -2.1688  0.9322  -0.0429
C  -0.3456  -0.2103  1.2029
C  0.6542  -1.3311  1.1324
C  1.6701  -0.8768  0.0717
C  1.1211  0.4578  -0.3949
C  2.0851  1.3394  -1.0455
C  0.5844  0.9881  0.9430
C  -0.1317  0.1940  -1.1203
O  -0.3807  0.2474  -2.3236
H  -1.2626  -2.0789  -1.0885
H  -2.8081  -1.2279  -0.9264
H  -2.1023  -1.9922  0.5548
H  -1.7260  1.9072  -0.3875
H  -2.9786  0.6767  -0.7613
H  -2.5137  1.0833  0.9801
H  -0.9028  -0.1285  2.1156
H  1.1947  -1.3401  2.1154
H  0.2273  -2.3076  0.9006
H  2.6696  -0.6989  0.5351
H  1.7342  -1.6216  -0.7391
H  3.1243  0.9303  -1.0341
H  2.0445  2.3874  -0.6594
H  1.8342  1.4340  -2.1396
H  1.3402  0.9610  1.7306
H  0.0338  1.9174  0.8316
*