! b97-3c opt
%maxcore 5000
* xyz 0 1
C  2.1610  -0.8572  -0.7359
C  1.1383  -0.2125  0.1496
C  1.7218  -0.0275  1.5179
C  0.5619  1.0501  -0.4301
C  -0.3171  1.7009  0.5934
C  -1.5756  0.8229  0.6789
C  -1.2300  -0.3219  -0.2365
C  -2.3562  -1.1333  -0.6991
C  -0.5083  0.4430  -1.3574
C  -0.0752  -1.0980  0.3146
O  -0.0371  -2.1968  0.8023
H  2.3730  -1.8687  -0.3327
H  1.8674  -0.8729  -1.8102
H  3.0984  -0.2739  -0.6437
H  0.9673  0.1133  2.3100
H  2.2544  -0.9788  1.7705
H  2.5039  0.7552  1.5029
H  1.2533  1.6912  -0.9453
H  -0.5789  2.7144  0.2049
H  0.1377  1.8273  1.5784
H  -2.4060  1.3889  0.2106
H  -1.7814  0.5125  1.7091
H  -2.5378  -1.1546  -1.7879
H  -2.1736  -2.2063  -0.4052
H  -3.2872  -0.8571  -0.1228
H  -0.0735  -0.2275  -2.0971
H  -1.1005  1.2673  -1.7389
*