! b97-3c opt
%maxcore 5000
* xyz 0 1
C  2.0649  -0.0483  -0.0001
C  0.6057  0.1293  0.0325
C  -0.0765  1.1752  -0.3935
C  -1.5177  0.9520  -0.1795
O  -2.4139  1.7897  -0.0146
C  -1.5950  -0.5558  -0.2168
C  -0.3438  -0.8689  0.5713
H  2.5500  0.4330  -0.8767
H  2.5088  0.3225  0.9448
H  2.3473  -1.1330  -0.0716
H  0.3305  2.0961  -0.8456
H  -2.5093  -0.9379  0.2183
H  -1.4067  -0.8553  -1.2663
H  -0.5364  -0.5907  1.6398
H  -0.0078  -1.9080  0.4581
*