! b97-3c opt
%maxcore 5000
* xyz 0 1
C  2.7608  -0.9397  -0.0602
C  1.5258  -0.1432  0.0121
C  1.4984  0.9552  0.7145
C  0.3046  1.7847  0.8230
O  0.2736  2.7528  1.6274
C  -0.8821  1.4664  -0.0370
C  -0.9490  -0.0287  -0.2101
C  -2.0270  -0.4049  -1.2059
C  -1.3638  -0.6271  1.1224
C  0.3447  -0.6046  -0.7118
H  3.2503  -1.0048  0.9447
H  2.6023  -1.9540  -0.4922
H  3.4951  -0.4471  -0.7611
H  2.3937  1.2600  1.2342
H  -1.7664  1.8230  0.5209
H  -0.7637  1.9435  -1.0313
H  -1.6717  -0.1931  -2.2379
H  -2.9474  0.1509  -0.9662
H  -2.2317  -1.4898  -1.0577
H  -0.6424  -0.3729  1.9295
H  -1.5132  -1.7396  1.0341
H  -2.3852  -0.1942  1.3352
H  0.4277  -0.2912  -1.7936
H  0.2667  -1.7017  -0.7330
*