! b97-3c opt
%maxcore 5000
* xyz 0 1
C  2.7492  -2.1826  0.1148
C  1.4072  -1.4315  -0.0140
C  0.4508  -2.1236  0.8843
C  -0.9286  -2.0709  0.2041
C  -1.0447  -0.6821  -0.3023
C  -0.7801  0.2443  0.9158
C  0.5331  0.8410  0.7307
C  1.6301  0.0092  0.1777
C  2.0178  0.5906  -1.1892
C  1.3628  1.9267  -1.2905
C  0.5939  2.1338  -0.0323
C  0.0734  3.3061  0.3046
C  -2.0085  0.3173  0.1678
C  -3.2529  -0.3478  0.8038
C  -2.4488  1.3370  -0.8137
H  3.5163  -1.6123  -0.4499
H  2.6693  -3.1959  -0.3241
H  3.0361  -2.1945  1.1831
H  1.1109  -1.6724  -1.0796
H  0.4261  -1.7915  1.9182
H  0.7055  -3.2255  0.8737
H  -1.0304  -2.8526  -0.5581
H  -1.6535  -2.2907  1.0222
H  -0.5018  -0.4469  -1.2289
H  -0.8973  -0.2482  1.9373
H  0.9062  1.2019  1.7499
H  2.5779  0.1215  0.7908
H  3.1154  0.7189  -1.2973
H  1.7344  -0.1133  -2.0162
H  0.6903  1.9839  -2.1545
H  2.1267  2.7398  -1.4374
H  0.1580  4.1935  -0.2957
H  -0.4662  3.3719  1.2361
H  -3.7640  -0.9389  0.0236
H  -2.9906  -0.9015  1.7052
H  -3.9269  0.4791  1.1037
H  -3.3343  0.9154  -1.3789
H  -2.8233  2.2875  -0.3812
H  -1.7397  1.6034  -1.6035
*