! b97-3c opt
%maxcore 5000
* xyz 0 1
C  1.9657  -0.0914  -0.0866
C  0.6153  -0.3624  0.5200
C  -0.2609  -0.9740  -0.5503
C  -1.6187  -0.3560  -0.1968
C  -1.1614  1.1015  -0.0369
C  -0.0489  0.9099  0.9208
O  0.2378  1.6361  1.8189
H  1.8631  0.8157  -0.7342
H  2.7266  0.0641  0.7091
H  2.2701  -0.9444  -0.7308
H  0.6709  -1.0851  1.3635
H  -0.2964  -2.0636  -0.5207
H  -0.0157  -0.5669  -1.5609
H  -2.3439  -0.4705  -1.0004
H  -1.9221  -0.7477  0.7810
H  -1.9598  1.7471  0.3128
H  -0.7214  1.3874  -1.0085
*