! b97-3c opt
%maxcore 5000
* xyz 0 1
C  -2.2477  -0.6530  -0.4122
C  -0.9693  -0.0723  0.0973
C  -0.9942  0.2583  1.5443
C  -0.4158  0.9844  -0.8314
C  0.1465  -0.1587  -1.6676
C  0.1998  -0.9550  -0.3554
C  1.4533  -0.5614  0.3109
C  2.2711  -1.4558  0.8610
C  1.7524  0.8703  0.3359
O  2.8114  1.3132  0.8121
C  0.7114  1.7675  -0.2440
H  -2.1442  -1.7742  -0.4031
H  -2.5346  -0.2713  -1.4119
H  -3.0578  -0.3588  0.2927
H  -2.0722  0.3030  1.8666
H  -0.5514  -0.6150  2.1072
H  -0.4463  1.1629  1.8352
H  -1.1470  1.5935  -1.3556
H  -0.6507  -0.5469  -2.3383
H  1.1156  0.0397  -2.1244
H  -0.0270  -2.0107  -0.4412
H  3.1840  -1.1907  1.3484
H  1.9877  -2.4934  0.8054
H  1.2217  2.2943  -1.0995
H  0.4032  2.5300  0.4675
*